# File generated by Flopy version 3.3.3 on 11/04/2021 at 17:00:51.
BEGIN options
END options

BEGIN timing
  TDIS6  syn_model.tdis
END timing

BEGIN models
  gwf6  syn_model.nam  syn_model
END models

BEGIN exchanges
END exchanges

BEGIN solutiongroup  1
  ims6  syn_model.ims  syn_model
END solutiongroup  1

