# MPSIM package for MODPATH 7, generated by Flopy.
mp_rv.mpnam
mp_rv.mplst
4 2 2 2 1 0
mp_rv.mpend
mp_rv.mppth
mp_rv.timeseries
0
1
0
2
1
100 0.01
1
1
3
w1
1
0.0
INTERNAL
1
2
1000 1
         1      5356       0.4598249               0             0.5               0         0
         2      5362       0.4593746       0.9908332             0.5               0         0
         3      5362       0.4589243       0.9816664             0.5               0         0
         4      5362        0.458474       0.9724996             0.5               0         0
         5      5362       0.4580236       0.9633328             0.5               0         0
         6      5362       0.4575733       0.9541661             0.5               0         0
         7      5362       0.4571229       0.9449993             0.5               0         0
         8      5362       0.4566726       0.9358324             0.5               0         0
         9      5362       0.4562223       0.9266657             0.5               0         0
        10      5362       0.4557719       0.9174989             0.5               0         0
        11      5362       0.4553216       0.9083321             0.5               0         0
        12      5362       0.4548713       0.8991653             0.5               0         0
        13      5362       0.4544209       0.8899985             0.5               0         0
        14      5362       0.4539706       0.8808317             0.5               0         0
        15      5362       0.4535202       0.8716649             0.5               0         0
        16      5362       0.4530699       0.8624982             0.5               0         0
        17      5362       0.4522694       0.8533658             0.5               0         0
        18      5362       0.4509228       0.8442873             0.5               0         0
        19      5362       0.4495761       0.8352088             0.5               0         0
        20      5362       0.4482294       0.8261303             0.5               0         0
        21      5362       0.4468828       0.8170518             0.5               0         0
        22      5362       0.4455361       0.8079733             0.5               0         0
        23      5362       0.4441894       0.7988948             0.5               0         0
        24      5362       0.4428428       0.7898163             0.5               0         0
        25      5362       0.4414961       0.7807378             0.5               0         0
        26      5362       0.4401494       0.7716593             0.5               0         0
        27      5362       0.4388027       0.7625808             0.5               0         0
        28      5362       0.4374561       0.7535022             0.5               0         0
        29      5362       0.4361094       0.7444237             0.5               0         0
        30      5362       0.4347627       0.7353452             0.5               0         0
        31      5362       0.4334161       0.7262667             0.5               0         0
        32      5362       0.4320694       0.7171882             0.5               0         0
        33      5362       0.4300326       0.7082469             0.5               0         0
        34      5362       0.4278026       0.6993442             0.5               0         0
        35      5362       0.4255725       0.6904414             0.5               0         0
        36      5362       0.4233425       0.6815386             0.5               0         0
        37      5362       0.4211125       0.6726358             0.5               0         0
        38      5362       0.4188824        0.663733             0.5               0         0
        39      5362       0.4166524       0.6548302             0.5               0         0
        40      5362       0.4144224       0.6459274             0.5               0         0
        41      5362       0.4121923       0.6370246             0.5               0         0
        42      5362       0.4099623       0.6281218             0.5               0         0
        43      5362       0.4077322        0.619219             0.5               0         0
        44      5362       0.4055022       0.6103162             0.5               0         0
        45      5362       0.4032722       0.6014134             0.5               0         0
        46      5362       0.4010422       0.5925106             0.5               0         0
        47      5362       0.3988121       0.5836078             0.5               0         0
        48      5362       0.3964339       0.5747499             0.5               0         0
        49      5362        0.393342       0.5661086             0.5               0         0
        50      5362       0.3902501       0.5574673             0.5               0         0
        51      5362       0.3871582       0.5488259             0.5               0         0
        52      5362       0.3840663       0.5401846             0.5               0         0
        53      5362       0.3809743       0.5315433             0.5               0         0
        54      5362       0.3778824       0.5229019             0.5               0         0
        55      5362       0.3747905       0.5142605             0.5               0         0
        56      5362       0.3716986       0.5056192             0.5               0         0
        57      5362       0.3686066       0.4969778             0.5               0         0
        58      5362       0.3655147       0.4883365             0.5               0         0
        59      5362       0.3624228       0.4796951             0.5               0         0
        60      5362       0.3593309       0.4710538             0.5               0         0
        61      5362        0.356239       0.4624124             0.5               0         0
        62      5362        0.353147       0.4537711             0.5               0         0
        63      5362       0.3500551       0.4451298             0.5               0         0
        64      5362       0.3464951       0.4366823             0.5               0         0
        65      5362       0.3425711       0.4283856             0.5               0         0
        66      5362        0.338647       0.4200889             0.5               0         0
        67      5362        0.334723       0.4117923             0.5               0         0
        68      5362        0.330799       0.4034956             0.5               0         0
        69      5362       0.3268749       0.3951989             0.5               0         0
        70      5362       0.3229509       0.3869022             0.5               0         0
        71      5362       0.3190269       0.3786056             0.5               0         0
        72      5362       0.3151028       0.3703089             0.5               0         0
        73      5362       0.3111788       0.3620122             0.5               0         0
        74      5362       0.3072548       0.3537156             0.5               0         0
        75      5362       0.3033307       0.3454189             0.5               0         0
        76      5362       0.2994067       0.3371222             0.5               0         0
        77      5362       0.2954827       0.3288255             0.5               0         0
        78      5362       0.2915586       0.3205289             0.5               0         0
        79      5362       0.2876346       0.3122322             0.5               0         0
        80      5362       0.2829535       0.3043402             0.5               0         0
        81      5362       0.2782351       0.2964681             0.5               0         0
        82      5362       0.2735168        0.288596             0.5               0         0
        83      5362       0.2687984       0.2807239             0.5               0         0
        84      5362         0.26408       0.2728518             0.5               0         0
        85      5362       0.2593617       0.2649797             0.5               0         0
        86      5362       0.2546434       0.2571076             0.5               0         0
        87      5362        0.249925       0.2492355             0.5               0         0
        88      5362       0.2452066       0.2413634             0.5               0         0
        89      5362       0.2404883       0.2334913             0.5               0         0
        90      5362       0.2357699       0.2256192             0.5               0         0
        91      5362       0.2310516       0.2177471             0.5               0         0
        92      5362       0.2263332        0.209875             0.5               0         0
        93      5362       0.2216149       0.2020029             0.5               0         0
        94      5362       0.2168965       0.1941308             0.5               0         0
        95      5362       0.2119207       0.1864307             0.5               0         0
        96      5362       0.2064535        0.179059             0.5               0         0
        97      5362       0.2009863       0.1716873             0.5               0         0
        98      5362        0.195519       0.1643156             0.5               0         0
        99      5362       0.1900518       0.1569438             0.5               0         0
       100      5362       0.1845845       0.1495721             0.5               0         0
       101      5362       0.1791173       0.1422004             0.5               0         0
       102      5362       0.1736501       0.1348287             0.5               0         0
       103      5362       0.1681828        0.127457             0.5               0         0
       104      5362       0.1627156       0.1200853             0.5               0         0
       105      5362       0.1572484       0.1127135             0.5               0         0
       106      5362       0.1517811       0.1053418             0.5               0         0
       107      5362       0.1463139      0.09797011             0.5               0         0
       108      5362       0.1408467       0.0905984             0.5               0         0
       109      5362       0.1353794      0.08322669             0.5               0         0
       110      5362       0.1299122      0.07585497             0.5               0         0
       111      5362       0.1239337      0.06890287             0.5               0         0
       112      5362       0.1177702      0.06210253             0.5               0         0
       113      5362       0.1116067       0.0553022             0.5               0         0
       114      5362       0.1054433      0.04850186             0.5               0         0
       115      5362      0.09927979      0.04170153             0.5               0         0
       116      5362      0.09311633      0.03490119             0.5               0         0
       117      5362      0.08695287      0.02810085             0.5               0         0
       118      5362       0.0807894      0.02130052             0.5               0         0
       119      5362      0.07462593      0.01450018             0.5               0         0
       120      5362      0.06846247      0.00769985             0.5               0         0
       121      5362      0.06229901    0.0008995146             0.5               0         0
       122      5364      0.05613554       0.9940992             0.5               0         0
       123      5364      0.04997208       0.9872988             0.5               0         0
       124      5364      0.04380861       0.9804985             0.5               0         0
       125      5364      0.03764515       0.9736982             0.5               0         0
       126      5364      0.03140208       0.9669775             0.5               0         0
       127      5364      0.02460174        0.960814             0.5               0         0
       128      5364      0.01780141       0.9546505             0.5               0         0
       129      5364      0.01100107        0.948487             0.5               0         0
       130      5364     0.004200737       0.9423236             0.5               0         0
       131      5363       0.9974004       0.9361601             0.5               0         0
       132      5363          0.9906       0.9299967             0.5               0         0
       133      5363       0.9837998       0.9238332             0.5               0         0
       134      5363       0.9769994       0.9176697             0.5               0         0
       135      5363        0.970199       0.9115063             0.5               0         0
       136      5363       0.9633988       0.9053428             0.5               0         0
       137      5363       0.9565984       0.8991793             0.5               0         0
       138      5363        0.949798       0.8930159             0.5               0         0
       139      5363       0.9429977       0.8868524             0.5               0         0
       140      5363       0.9361974        0.880689             0.5               0         0
       141      5363        0.929397       0.8745255             0.5               0         0
       142      5363       0.9223021        0.868721             0.5               0         0
       143      5363       0.9149304       0.8632538             0.5               0         0
       144      5363       0.9075587       0.8577865             0.5               0         0
       145      5363        0.900187       0.8523193             0.5               0         0
       146      5363       0.8928152       0.8468521             0.5               0         0
       147      5363       0.8854435       0.8413848             0.5               0         0
       148      5363       0.8780718       0.8359176             0.5               0         0
       149      5363       0.8707001       0.8304504             0.5               0         0
       150      5363       0.8633284       0.8249831             0.5               0         0
       151      5363       0.8559567       0.8195159             0.5               0         0
       152      5363       0.8485849       0.8140486             0.5               0         0
       153      5363       0.8412132       0.8085814             0.5               0         0
       154      5363       0.8338415       0.8031142             0.5               0         0
       155      5363       0.8264698       0.7976469             0.5               0         0
       156      5363       0.8190981       0.7921797             0.5               0         0
       157      5363       0.8117264       0.7867125             0.5               0         0
       158      5363       0.8039012       0.7819239             0.5               0         0
       159      5363       0.7960291       0.7772055             0.5               0         0
       160      5363        0.788157       0.7724872             0.5               0         0
       161      5363       0.7802849       0.7677689             0.5               0         0
       162      5363       0.7724128       0.7630505             0.5               0         0
       163      5363       0.7645407       0.7583321             0.5               0         0
       164      5363       0.7566686       0.7536138             0.5               0         0
       165      5363       0.7487965       0.7488954             0.5               0         0
       166      5363       0.7409244        0.744177             0.5               0         0
       167      5363       0.7330523       0.7394587             0.5               0         0
       168      5363       0.7251802       0.7347404             0.5               0         0
       169      5363       0.7173081        0.730022             0.5               0         0
       170      5363        0.709436       0.7253036             0.5               0         0
       171      5363       0.7015639       0.7205853             0.5               0         0
       172      5363       0.6936918       0.7158669             0.5               0         0
       173      5363       0.6856936       0.7113844             0.5               0         0
       174      5363        0.677397       0.7074603             0.5               0         0
       175      5363       0.6691003       0.7035363             0.5               0         0
       176      5363       0.6608036       0.6996123             0.5               0         0
       177      5363       0.6525069       0.6956882             0.5               0         0
       178      5363       0.6442103       0.6917642             0.5               0         0
       179      5363       0.6359136       0.6878402             0.5               0         0
       180      5363       0.6276169       0.6839162             0.5               0         0
       181      5363       0.6193203       0.6799921             0.5               0         0
       182      5363       0.6110235       0.6760681             0.5               0         0
       183      5363       0.6027269       0.6721441             0.5               0         0
       184      5363       0.5944302         0.66822             0.5               0         0
       185      5363       0.5861335        0.664296             0.5               0         0
       186      5363       0.5778369        0.660372             0.5               0         0
       187      5363       0.5695402       0.6564479             0.5               0         0
       188      5363       0.5612435       0.6525239             0.5               0         0
       189      5363       0.5527099       0.6491719             0.5               0         0
       190      5363       0.5440686         0.64608             0.5               0         0
       191      5363       0.5354272       0.6429881             0.5               0         0
       192      5363       0.5267859       0.6398962             0.5               0         0
       193      5363       0.5181445       0.6368042             0.5               0         0
       194      5363       0.5095032       0.6337123             0.5               0         0
       195      5363       0.5008618       0.6306204             0.5               0         0
       196      5363       0.4922205       0.6275284             0.5               0         0
       197      5363       0.4835791       0.6244366             0.5               0         0
       198      5363       0.4749378       0.6213446             0.5               0         0
       199      5363       0.4662964       0.6182527             0.5               0         0
       200      5363       0.4576551       0.6151608             0.5               0         0
       201      5363       0.4490137       0.6120688             0.5               0         0
       202      5363       0.4403724       0.6089769             0.5               0         0
       203      5363        0.431731        0.605885             0.5               0         0
       204      5363       0.4230693       0.6028604             0.5               0         0
       205      5363       0.4141665       0.6006303             0.5               0         0
       206      5363       0.4052637       0.5984004             0.5               0         0
       207      5363       0.3963609       0.5961703             0.5               0         0
       208      5363       0.3874581       0.5939403             0.5               0         0
       209      5363       0.3785553       0.5917102             0.5               0         0
       210      5363       0.3696525       0.5894802             0.5               0         0
       211      5363       0.3607497       0.5872502             0.5               0         0
       212      5363       0.3518469       0.5850201             0.5               0         0
       213      5363       0.3429441       0.5827901             0.5               0         0
       214      5363       0.3340413       0.5805601             0.5               0         0
       215      5363       0.3251385         0.57833             0.5               0         0
       216      5363       0.3162357          0.5761             0.5               0         0
       217      5363       0.3073329       0.5738699             0.5               0         0
       218      5363       0.2984301       0.5716399             0.5               0         0
       219      5363       0.2895273       0.5694099             0.5               0         0
       220      5363       0.2805422       0.5675939             0.5               0         0
       221      5363       0.2714637       0.5662473             0.5               0         0
       222      5363       0.2623852       0.5649006             0.5               0         0
       223      5363       0.2533066       0.5635539             0.5               0         0
       224      5363       0.2442281       0.5622073             0.5               0         0
       225      5363       0.2351496       0.5608606             0.5               0         0
       226      5363       0.2260711       0.5595139             0.5               0         0
       227      5363       0.2169926       0.5581672             0.5               0         0
       228      5363       0.2079141       0.5568206             0.5               0         0
       229      5363       0.1988356       0.5554739             0.5               0         0
       230      5363       0.1897571       0.5541272             0.5               0         0
       231      5363       0.1806786       0.5527806             0.5               0         0
       232      5363       0.1716001       0.5514339             0.5               0         0
       233      5363       0.1625216       0.5500872             0.5               0         0
       234      5363        0.153443       0.5487406             0.5               0         0
       235      5363       0.1443645       0.5473939             0.5               0         0
       236      5363       0.1352102       0.5468175             0.5               0         0
       237      5363       0.1260434       0.5463672             0.5               0         0
       238      5363       0.1168766       0.5459169             0.5               0         0
       239      5363       0.1077098       0.5454665             0.5               0         0
       240      5363        0.098543       0.5450162             0.5               0         0
       241      5363       0.0893762       0.5445659             0.5               0         0
       242      5363      0.08020941       0.5441155             0.5               0         0
       243      5363      0.07104263       0.5436652             0.5               0         0
       244      5363      0.06187584       0.5432148             0.5               0         0
       245      5363      0.05270904       0.5427645             0.5               0         0
       246      5363      0.04354225       0.5423142             0.5               0         0
       247      5363      0.03437546       0.5418638             0.5               0         0
       248      5363      0.02520867       0.5414135             0.5               0         0
       249      5363      0.01604188       0.5409631             0.5               0         0
       250      5363     0.006875093       0.5405128             0.5               0         0
       251      5360       0.9977083       0.5402876             0.5               0         0
       252      5360       0.9885415        0.540738             0.5               0         0
       253      5360       0.9793747       0.5411883             0.5               0         0
       254      5360       0.9702079       0.5416387             0.5               0         0
       255      5360       0.9610412        0.542089             0.5               0         0
       256      5360       0.9518744       0.5425393             0.5               0         0
       257      5360       0.9427075       0.5429897             0.5               0         0
       258      5360       0.9335408         0.54344             0.5               0         0
       259      5360        0.924374       0.5438903             0.5               0         0
       260      5360       0.9152072       0.5443407             0.5               0         0
       261      5360       0.9060404        0.544791             0.5               0         0
       262      5360       0.8968736       0.5452414             0.5               0         0
       263      5360       0.8877068       0.5456917             0.5               0         0
       264      5360         0.87854        0.546142             0.5               0         0
       265      5360       0.8693733       0.5465924             0.5               0         0
       266      5360       0.8602064       0.5470427             0.5               0         0
       267      5360       0.8510962       0.5480672             0.5               0         0
       268      5360       0.8420177       0.5494139             0.5               0         0
       269      5360       0.8329392       0.5507606             0.5               0         0
       270      5360       0.8238607       0.5521072             0.5               0         0
       271      5360       0.8147822       0.5534539             0.5               0         0
       272      5360       0.8057036       0.5548006             0.5               0         0
       273      5360       0.7966251       0.5561472             0.5               0         0
       274      5360       0.7875466       0.5574939             0.5               0         0
       275      5360       0.7784681       0.5588406             0.5               0         0
       276      5360       0.7693896       0.5601872             0.5               0         0
       277      5360       0.7603111       0.5615339             0.5               0         0
       278      5360       0.7512326       0.5628806             0.5               0         0
       279      5360       0.7421541       0.5642273             0.5               0         0
       280      5360       0.7330756       0.5655739             0.5               0         0
       281      5360       0.7239971       0.5669206             0.5               0         0
       282      5360       0.7149241       0.5682949             0.5               0         0
       283      5360       0.7060212       0.5705249             0.5               0         0
       284      5360       0.6971185       0.5727549             0.5               0         0
       285      5360       0.6882157        0.574985             0.5               0         0
       286      5360       0.6793129        0.577215             0.5               0         0
       287      5360       0.6704101       0.5794451             0.5               0         0
       288      5360       0.6615073       0.5816751             0.5               0         0
       289      5360       0.6526045       0.5839051             0.5               0         0
       290      5360       0.6437017       0.5861351             0.5               0         0
       291      5360       0.6347989       0.5883652             0.5               0         0
       292      5360       0.6258961       0.5905952             0.5               0         0
       293      5360       0.6169933       0.5928252             0.5               0         0
       294      5360       0.6080905       0.5950553             0.5               0         0
       295      5360       0.5991877       0.5972853             0.5               0         0
       296      5360       0.5902849       0.5995154             0.5               0         0
       297      5360       0.5813821       0.6017454             0.5               0         0
       298      5360       0.5725896        0.604339             0.5               0         0
       299      5360       0.5639483       0.6074309             0.5               0         0
       300      5360       0.5553069       0.6105229             0.5               0         0
       301      5360       0.5466656       0.6136148             0.5               0         0
       302      5360       0.5380242       0.6167067             0.5               0         0
       303      5360       0.5293829       0.6197987             0.5               0         0
       304      5360       0.5207415       0.6228906             0.5               0         0
       305      5360       0.5121002       0.6259825             0.5               0         0
       306      5360       0.5034589       0.6290744             0.5               0         0
       307      5360       0.4948175       0.6321663             0.5               0         0
       308      5360       0.4861762       0.6352583             0.5               0         0
       309      5360       0.4775348       0.6383502             0.5               0         0
       310      5360       0.4688935       0.6414421             0.5               0         0
       311      5360       0.4602521       0.6445341             0.5               0         0
       312      5360       0.4516108        0.647626             0.5               0         0
       313      5360       0.4429694       0.6507179             0.5               0         0