# MPSIM package for MODPATH 7, generated by Flopy.
mp_rv.mpnam
mp_rv.mplst
4 2 2 2 1 0
mp_rv.mpend
mp_rv.mppth
mp_rv.timeseries
0
1
0
2
1
100 0.01
1
1
3
w1
1
0.0
INTERNAL
1
2
1000 1
         1      5356       0.4222136               0             0.5               0         0
         2      5362       0.4217748       0.9910694             0.5               0         0
         3      5362       0.4213361       0.9821388             0.5               0         0
         4      5362       0.4208974       0.9732081             0.5               0         0
         5      5362       0.4204586       0.9642776             0.5               0         0
         6      5362       0.4200199       0.9553469             0.5               0         0
         7      5362       0.4195812       0.9464163             0.5               0         0
         8      5362       0.4191424       0.9374857             0.5               0         0
         9      5362       0.4187037       0.9285551             0.5               0         0
        10      5362        0.418265       0.9196244             0.5               0         0
        11      5362       0.4178262       0.9106939             0.5               0         0
        12      5362       0.4173875       0.9017633             0.5               0         0
        13      5362       0.4169488       0.8928326             0.5               0         0
        14      5362         0.41651        0.883902             0.5               0         0
        15      5362       0.4160713       0.8749714             0.5               0         0
        16      5362       0.4156326       0.8660408             0.5               0         0
        17      5362       0.4148527       0.8571438             0.5               0         0
        18      5362       0.4135408       0.8482991             0.5               0         0
        19      5362       0.4122288       0.8394545             0.5               0         0
        20      5362       0.4109168       0.8306099             0.5               0         0
        21      5362       0.4096048       0.8217654             0.5               0         0
        22      5362       0.4082929       0.8129207             0.5               0         0
        23      5362       0.4069809       0.8040761             0.5               0         0
        24      5362       0.4056689       0.7952315             0.5               0         0
        25      5362       0.4043569       0.7863869             0.5               0         0
        26      5362        0.403045       0.7775423             0.5               0         0
        27      5362        0.401733       0.7686977             0.5               0         0
        28      5362        0.400421       0.7598531             0.5               0         0
        29      5362        0.399109       0.7510085             0.5               0         0
        30      5362       0.3977971       0.7421639             0.5               0         0
        31      5362       0.3964851       0.7333193             0.5               0         0
        32      5362       0.3951731       0.7244747             0.5               0         0
        33      5362       0.3931888       0.7157638             0.5               0         0
        34      5362       0.3910162       0.7070904             0.5               0         0
        35      5362       0.3888437       0.6984169             0.5               0         0
        36      5362       0.3866711       0.6897435             0.5               0         0
        37      5362       0.3844985       0.6810701             0.5               0         0
        38      5362       0.3823259       0.6723967             0.5               0         0
        39      5362       0.3801533       0.6637232             0.5               0         0
        40      5362       0.3779807       0.6550498             0.5               0         0
        41      5362       0.3758082       0.6463764             0.5               0         0
        42      5362       0.3736356        0.637703             0.5               0         0
        43      5362        0.371463       0.6290296             0.5               0         0
        44      5362       0.3692904       0.6203561             0.5               0         0
        45      5362       0.3671179       0.6116827             0.5               0         0
        46      5362       0.3649453       0.6030093             0.5               0         0
        47      5362       0.3627727       0.5943359             0.5               0         0
        48      5362       0.3604558       0.5857062             0.5               0         0
        49      5362       0.3574435       0.5772875             0.5               0         0
        50      5362       0.3544313       0.5688688             0.5               0         0
        51      5362        0.351419       0.5604501             0.5               0         0
        52      5362       0.3484067       0.5520314             0.5               0         0
        53      5362       0.3453945       0.5436127             0.5               0         0
        54      5362       0.3423822        0.535194             0.5               0         0
        55      5362         0.33937       0.5267753             0.5               0         0
        56      5362       0.3363577       0.5183566             0.5               0         0
        57      5362       0.3333454       0.5099379             0.5               0         0
        58      5362       0.3303332       0.5015191             0.5               0         0
        59      5362       0.3273209       0.4931004             0.5               0         0
        60      5362       0.3243087       0.4846817             0.5               0         0
        61      5362       0.3212964        0.476263             0.5               0         0
        62      5362       0.3182841       0.4678443             0.5               0         0
        63      5362       0.3152719       0.4594256             0.5               0         0
        64      5362       0.3118036       0.4511958             0.5               0         0
        65      5362       0.3079807       0.4431129             0.5               0         0
        66      5362       0.3041577         0.43503             0.5               0         0
        67      5362       0.3003348       0.4269471             0.5               0         0
        68      5362       0.2965119       0.4188641             0.5               0         0
        69      5362       0.2926889       0.4107812             0.5               0         0
        70      5362        0.288866       0.4026983             0.5               0         0
        71      5362       0.2850431       0.3946154             0.5               0         0
        72      5362       0.2812201       0.3865325             0.5               0         0
        73      5362       0.2773972       0.3784496             0.5               0         0
        74      5362       0.2735743       0.3703666             0.5               0         0
        75      5362       0.2697513       0.3622837             0.5               0         0
        76      5362       0.2659284       0.3542008             0.5               0         0
        77      5362       0.2621055       0.3461179             0.5               0         0
        78      5362       0.2582825        0.338035             0.5               0         0
        79      5362       0.2544596       0.3299521             0.5               0         0
        80      5362       0.2498991       0.3222634             0.5               0         0
        81      5362       0.2453023       0.3145941             0.5               0         0
        82      5362       0.2407055       0.3069248             0.5               0         0
        83      5362       0.2361087       0.2992555             0.5               0         0
        84      5362       0.2315119       0.2915863             0.5               0         0
        85      5362       0.2269151        0.283917             0.5               0         0
        86      5362       0.2223183       0.2762477             0.5               0         0
        87      5362       0.2177215       0.2685784             0.5               0         0
        88      5362       0.2131248       0.2609091             0.5               0         0
        89      5362        0.208528       0.2532398             0.5               0         0
        90      5362       0.2039312       0.2455706             0.5               0         0
        91      5362       0.1993344       0.2379013             0.5               0         0
        92      5362       0.1947376        0.230232             0.5               0         0
        93      5362       0.1901408       0.2225627             0.5               0         0
        94      5362        0.185544       0.2148934             0.5               0         0
        95      5362       0.1806964       0.2073917             0.5               0         0
        96      5362         0.17537         0.20021             0.5               0         0
        97      5362       0.1700437       0.1930282             0.5               0         0
        98      5362       0.1647173       0.1858464             0.5               0         0
        99      5362       0.1593909       0.1786646             0.5               0         0
       100      5362       0.1540645       0.1714828             0.5               0         0
       101      5362       0.1487382        0.164301             0.5               0         0
       102      5362       0.1434118       0.1571192             0.5               0         0
       103      5362       0.1380854       0.1499374             0.5               0         0
       104      5362        0.132759       0.1427557             0.5               0         0
       105      5362       0.1274327       0.1355739             0.5               0         0
       106      5362       0.1221063       0.1283921             0.5               0         0
       107      5362       0.1167799       0.1212103             0.5               0         0
       108      5362       0.1114535       0.1140285             0.5               0         0
       109      5362       0.1061271       0.1068467             0.5               0         0
       110      5362       0.1008008      0.09966493             0.5               0         0
       111      5362      0.09497628      0.09289194             0.5               0         0
       112      5362      0.08897161      0.08626681             0.5               0         0
       113      5362      0.08296694      0.07964168             0.5               0         0
       114      5362      0.07696227      0.07301655             0.5               0         0
       115      5362      0.07095761      0.06639142             0.5               0         0
       116      5362      0.06495294      0.05976629             0.5               0         0
       117      5362      0.05894827      0.05314117             0.5               0         0
       118      5362      0.05294361      0.04651603             0.5               0         0
       119      5362      0.04693894      0.03989091             0.5               0         0
       120      5362      0.04093427      0.03326578             0.5               0         0
       121      5362       0.0349296      0.02664065             0.5               0         0
       122      5362      0.02892494      0.02001552             0.5               0         0
       123      5362      0.02292027      0.01339039             0.5               0         0
       124      5362       0.0169156     0.006765263             0.5               0         0
       125      5362      0.01091094    0.0001401335             0.5               0         0
       126      5364     0.004828713       0.9935926             0.5               0         0
       127      5363       0.9982036       0.9875879             0.5               0         0
       128      5363       0.9915785       0.9815832             0.5               0         0
       129      5363       0.9849533       0.9755785             0.5               0         0
       130      5363       0.9783282       0.9695739             0.5               0         0
       131      5363       0.9717031       0.9635692             0.5               0         0
       132      5363       0.9650779       0.9575645             0.5               0         0
       133      5363       0.9584528       0.9515599             0.5               0         0
       134      5363       0.9518277       0.9455552             0.5               0         0
       135      5363       0.9452025       0.9395506             0.5               0         0
       136      5363       0.9385774       0.9335459             0.5               0         0
       137      5363       0.9319523       0.9275413             0.5               0         0
       138      5363       0.9253272       0.9215366             0.5               0         0
       139      5363       0.9187021       0.9155319             0.5               0         0
       140      5363       0.9120769       0.9095272             0.5               0         0
       141      5363       0.9054518       0.9035226             0.5               0         0
       142      5363       0.8985396       0.8978676             0.5               0         0
       143      5363       0.8913578       0.8925413             0.5               0         0
       144      5363       0.8841761       0.8872149             0.5               0         0
       145      5363       0.8769943       0.8818885             0.5               0         0
       146      5363       0.8698125       0.8765621             0.5               0         0
       147      5363       0.8626307       0.8712357             0.5               0         0
       148      5363       0.8554489       0.8659094             0.5               0         0
       149      5363       0.8482671        0.860583             0.5               0         0
       150      5363       0.8410853       0.8552566             0.5               0         0
       151      5363       0.8339036       0.8499302             0.5               0         0
       152      5363       0.8267217       0.8446039             0.5               0         0
       153      5363         0.81954       0.8392775             0.5               0         0
       154      5363       0.8123582       0.8339511             0.5               0         0
       155      5363       0.8051764       0.8286247             0.5               0         0
       156      5363       0.7979946       0.8232984             0.5               0         0
       157      5363       0.7908128        0.817972             0.5               0         0
       158      5363       0.7831892       0.8133068             0.5               0         0
       159      5363         0.77552         0.80871             0.5               0         0
       160      5363       0.7678507       0.8041132             0.5               0         0
       161      5363       0.7601814       0.7995164             0.5               0         0
       162      5363       0.7525121       0.7949196             0.5               0         0
       163      5363       0.7448428       0.7903228             0.5               0         0
       164      5363       0.7371736       0.7857261             0.5               0         0
       165      5363       0.7295043       0.7811292             0.5               0         0
       166      5363        0.721835       0.7765325             0.5               0         0
       167      5363       0.7141657       0.7719357             0.5               0         0
       168      5363       0.7064964       0.7673389             0.5               0         0
       169      5363       0.6988271       0.7627421             0.5               0         0
       170      5363       0.6911579       0.7581453             0.5               0         0
       171      5363       0.6834885       0.7535485             0.5               0         0
       172      5363       0.6758193       0.7489517             0.5               0         0
       173      5363       0.6680272       0.7445847             0.5               0         0
       174      5363       0.6599443       0.7407618             0.5               0         0
       175      5363       0.6518614       0.7369388             0.5               0         0
       176      5363       0.6437784       0.7331159             0.5               0         0
       177      5363       0.6356956       0.7292929             0.5               0         0
       178      5363       0.6276127         0.72547             0.5               0         0
       179      5363       0.6195297       0.7216471             0.5               0         0
       180      5363       0.6114468       0.7178242             0.5               0         0
       181      5363       0.6033639       0.7140012             0.5               0         0
       182      5363       0.5952809       0.7101783             0.5               0         0
       183      5363       0.5871981       0.7063553             0.5               0         0
       184      5363       0.5791152       0.7025324             0.5               0         0
       185      5363       0.5710322       0.6987095             0.5               0         0
       186      5363       0.5629493       0.6948865             0.5               0         0
       187      5363       0.5548664       0.6910636             0.5               0         0
       188      5363       0.5467835       0.6872407             0.5               0         0
       189      5363       0.5384697        0.683975             0.5               0         0
       190      5363        0.530051       0.6809628             0.5               0         0
       191      5363       0.5216323       0.6779506             0.5               0         0
       192      5363       0.5132136       0.6749383             0.5               0         0
       193      5363       0.5047949        0.671926             0.5               0         0
       194      5363       0.4963762       0.6689138             0.5               0         0
       195      5363       0.4879574       0.6659015             0.5               0         0
       196      5363       0.4795387       0.6628892             0.5               0         0
       197      5363       0.4711201        0.659877             0.5               0         0
       198      5363       0.4627014       0.6568647             0.5               0         0
       199      5363       0.4542826       0.6538525             0.5               0         0
       200      5363       0.4458639       0.6508402             0.5               0         0
       201      5363       0.4374452       0.6478279             0.5               0         0
       202      5363       0.4290265       0.6448157             0.5               0         0
       203      5363       0.4206078       0.6418034             0.5               0         0
       204      5363       0.4121692       0.6388568             0.5               0         0
       205      5363       0.4034958       0.6366842             0.5               0         0
       206      5363       0.3948224       0.6345116             0.5               0         0
       207      5363       0.3861489        0.632339             0.5               0         0
       208      5363       0.3774755       0.6301664             0.5               0         0
       209      5363       0.3688021       0.6279938             0.5               0         0
       210      5363       0.3601287       0.6258213             0.5               0         0
       211      5363       0.3514552       0.6236487             0.5               0         0
       212      5363       0.3427818       0.6214761             0.5               0         0
       213      5363       0.3341084       0.6193035             0.5               0         0
       214      5363        0.325435       0.6171309             0.5               0         0
       215      5363       0.3167616       0.6149583             0.5               0         0
       216      5363       0.3080881       0.6127858             0.5               0         0
       217      5363       0.2994147       0.6106132             0.5               0         0
       218      5363       0.2907413       0.6084406             0.5               0         0
       219      5363       0.2820679        0.606268             0.5               0         0
       220      5363       0.2733142       0.6044989             0.5               0         0
       221      5363       0.2644696       0.6031869             0.5               0         0
       222      5363        0.255625       0.6018749             0.5               0         0
       223      5363       0.2467804        0.600563             0.5               0         0
       224      5363       0.2379358        0.599251             0.5               0         0
       225      5363       0.2290912        0.597939             0.5               0         0
       226      5363       0.2202466       0.5966271             0.5               0         0
       227      5363       0.2114019       0.5953151             0.5               0         0
       228      5363       0.2025573       0.5940031             0.5               0         0
       229      5363       0.1937127       0.5926911             0.5               0         0
       230      5363       0.1848681       0.5913792             0.5               0         0
       231      5363       0.1760235       0.5900671             0.5               0         0
       232      5363       0.1671789       0.5887552             0.5               0         0
       233      5363       0.1583343       0.5874432             0.5               0         0
       234      5363       0.1494897       0.5861313             0.5               0         0
       235      5363       0.1406451       0.5848193             0.5               0         0
       236      5363       0.1317266       0.5842577             0.5               0         0
       237      5363       0.1227959        0.583819             0.5               0         0
       238      5363       0.1138653       0.5833803             0.5               0         0
       239      5363       0.1049347       0.5829415             0.5               0         0
       240      5363      0.09600411       0.5825028             0.5               0         0
       241      5363      0.08707349       0.5820641             0.5               0         0
       242      5363      0.07814287       0.5816253             0.5               0         0
       243      5363      0.06921226       0.5811866             0.5               0         0
       244      5363      0.06028165       0.5807479             0.5               0         0
       245      5363      0.05135103       0.5803092             0.5               0         0
       246      5363      0.04242042       0.5798704             0.5               0         0
       247      5363       0.0334898       0.5794317             0.5               0         0
       248      5363      0.02455919        0.578993             0.5               0         0
       249      5363      0.01562857       0.5785542             0.5               0         0
       250      5363     0.006697961       0.5781155             0.5               0         0
       251      5360       0.9977673       0.5778961             0.5               0         0
       252      5360       0.9888367       0.5783349             0.5               0         0
       253      5360       0.9799061       0.5787736             0.5               0         0
       254      5360       0.9709755       0.5792123             0.5               0         0
       255      5360       0.9620449       0.5796511             0.5               0         0
       256      5360       0.9531143       0.5800898             0.5               0         0
       257      5360       0.9441836       0.5805285             0.5               0         0
       258      5360        0.935253       0.5809672             0.5               0         0
       259      5360       0.9263225        0.581406             0.5               0         0
       260      5360       0.9173918       0.5818447             0.5               0         0
       261      5360       0.9084612       0.5822834             0.5               0         0
       262      5360       0.8995306       0.5827222             0.5               0         0
       263      5360          0.8906       0.5831609             0.5               0         0
       264      5360       0.8816693       0.5835996             0.5               0         0
       265      5360       0.8727387       0.5840384             0.5               0         0
       266      5360       0.8638082       0.5844771             0.5               0         0
       267      5360       0.8549326       0.5854753             0.5               0         0
       268      5360        0.846088       0.5867872             0.5               0         0
       269      5360       0.8372434       0.5880992             0.5               0         0
       270      5360       0.8283988       0.5894112             0.5               0         0
       271      5360       0.8195542       0.5907232             0.5               0         0
       272      5360       0.8107096       0.5920351             0.5               0         0
       273      5360        0.801865       0.5933471             0.5               0         0
       274      5360       0.7930204       0.5946591             0.5               0         0
       275      5360       0.7841758        0.595971             0.5               0         0
       276      5360       0.7753311        0.597283             0.5               0         0
       277      5360       0.7664865        0.598595             0.5               0         0
       278      5360       0.7576419        0.599907             0.5               0         0
       279      5360       0.7487973       0.6012189             0.5               0         0
       280      5360       0.7399527       0.6025309             0.5               0         0
       281      5360       0.7311081       0.6038429             0.5               0         0
       282      5360       0.7222689       0.6051818             0.5               0         0
       283      5360       0.7135954       0.6073543             0.5               0         0
       284      5360        0.704922       0.6095269             0.5               0         0
       285      5360       0.6962486       0.6116995             0.5               0         0
       286      5360       0.6875752       0.6138721             0.5               0         0
       287      5360       0.6789017       0.6160446             0.5               0         0
       288      5360       0.6702283       0.6182172             0.5               0         0
       289      5360       0.6615549       0.6203898             0.5               0         0
       290      5360       0.6528815       0.6225624             0.5               0         0
       291      5360       0.6442081        0.624735             0.5               0         0
       292      5360       0.6355346       0.6269076             0.5               0         0
       293      5360       0.6268612       0.6290801             0.5               0         0
       294      5360       0.6181878       0.6312527             0.5               0         0
       295      5360       0.6095144       0.6334253             0.5               0         0
       296      5360       0.6008409       0.6355979             0.5               0         0
       297      5360       0.5921675       0.6377705             0.5               0         0
       298      5360       0.5836015       0.6402973             0.5               0         0
       299      5360       0.5751829       0.6433095             0.5               0         0
       300      5360       0.5667641       0.6463218             0.5               0         0
       301      5360       0.5583454       0.6493341             0.5               0         0
       302      5360       0.5499267       0.6523463             0.5               0         0
       303      5360        0.541508       0.6553586             0.5               0         0
       304      5360       0.5330893       0.6583709             0.5               0         0
       305      5360       0.5246706       0.6613831             0.5               0         0
       306      5360       0.5162519       0.6643954             0.5               0         0
       307      5360       0.5078332       0.6674076             0.5               0         0
       308      5360       0.4994145       0.6704199             0.5               0         0
       309      5360       0.4909958       0.6734322             0.5               0         0
       310      5360       0.4825771       0.6764444             0.5               0         0
       311      5360       0.4741583       0.6794567             0.5               0         0
       312      5360       0.4657396        0.682469             0.5               0         0
       313      5360       0.4573209       0.6854812             0.5               0         0