# File generated by Flopy version 3.3.3 on 11/03/2021 at 14:31:28.
BEGIN options
  SAVE_FLOWS
  SAVE_SPECIFIC_DISCHARGE
END options

BEGIN griddata
  icelltype
    CONSTANT  0
  k
    INTERNAL  FACTOR  1.0
    1.77231050E-04  1.98780501E-04  1.19570774E-04  7.64156139E-05  7.33887937E-05  2.28975041E-04  1.01694794E-04  9.15951532E-05  6.69062865E-05  4.59947150E-05  5.81886743E-05  4.56170237E-05  4.76678033E-05  4.96909124E-05  2.27653290E-05  2.38281573E-05  4.16721559E-05  9.28623340E-05  2.50119629E-04  4.60923242E-04
    4.39338968E-04  3.57375015E-04  5.90242911E-04  6.29220798E-04       0.00105969       0.00117416       0.00130297  6.32136420E-04  4.83609183E-04       0.00163542       0.00151488  8.17256980E-04  4.13139234E-04  1.71493812E-04  1.22164987E-04  1.37703872E-04  1.64709432E-04  1.64709432E-04  1.64709432E-04  1.64709432E-04
    4.13292786E-04  4.13292786E-04  4.13292786E-04  4.13292786E-04  4.13292786E-04  4.13292786E-04  4.13292786E-04  4.13292786E-04  4.13292786E-04  4.13292786E-04  4.13292786E-04  4.13292786E-04  4.13292786E-04  4.13292786E-04  4.13292786E-04  4.13292786E-04  2.66650808E-04  2.66650808E-04  2.66650808E-04  2.66650808E-04
    3.04726098E-04  3.75537347E-04  7.60341354E-04       0.00156557       0.00203351       0.00125721       0.00215973       0.00193212       0.00275255       0.00446850       0.00171996       0.00186381       0.00429220       0.00255842       0.00475009       0.00366561  7.84416392E-04  7.23422330E-04  6.96488481E-04  4.41156997E-04
    5.17664535E-04  5.01018716E-04  7.48466759E-04  5.09258360E-04  9.13518830E-04  8.24338116E-04       0.00113414  4.42636141E-04       0.00140113  5.19725378E-04  2.67889031E-04  2.15739710E-04  2.65581009E-04  2.76825042E-04  3.25420231E-04  5.46753217E-05  9.02552420E-05  2.61949725E-04  1.07924672E-04  6.32579031E-05
    5.19244168E-05  7.22281693E-05  1.27402673E-04  4.83764234E-05  3.83494626E-05  5.80306223E-05  4.47512648E-05  5.38126696E-05  4.51539963E-05  2.24378346E-05  4.18925702E-05  5.47392337E-05  1.16675037E-04  1.48652776E-04  4.09536908E-04  2.40258145E-04  2.50484503E-04  3.80171085E-04  4.94462147E-04  8.35361076E-04
    8.35764920E-04       0.00108413       0.00131974       0.00232459       0.00105621  7.37312657E-04       0.00135351       0.00140074       0.00102299  3.35719669E-04  2.37895583E-04  3.35851219E-04  3.65885790E-04  3.65885790E-04  3.65885790E-04  3.65885790E-04  2.66925228E-04  2.66925228E-04  2.66925228E-04  2.66925228E-04
    2.66925228E-04  2.66925228E-04  2.66925228E-04  2.66925228E-04  2.66925228E-04  2.66925228E-04  2.66925228E-04  2.66925228E-04  2.66925228E-04  2.66925228E-04  2.66925228E-04  2.66925228E-04  3.77719873E-04  3.77719873E-04  3.77719873E-04  3.77719873E-04  4.32626257E-04  4.21363948E-04  6.20250124E-04       0.00100817
         0.00130654       0.00214313       0.00177472       0.00106280       0.00156218       0.00290915       0.00284807       0.00222056       0.00164254       0.00162471       0.00289045       0.00371595       0.00176510  8.47837073E-04  2.46852695E-04  2.71200086E-04  4.63970937E-04  5.38508059E-04  6.17034384E-04  5.76142047E-04
    3.00625921E-04  5.86214243E-04  7.44891935E-04  8.06369935E-04  2.32467370E-04  2.65544775E-04  3.67812754E-04  1.96478650E-04  2.80367909E-04  4.80126415E-04  5.02627750E-04  6.11916825E-04  1.27710169E-04  1.52766210E-04  1.05931314E-04  7.57488888E-05  3.66991917E-05  4.57559181E-05  6.31328949E-05  6.13696175E-05
    2.56464591E-05  5.09881684E-05  6.55770564E-05  6.75080591E-05  5.97834551E-05  5.28170276E-05  3.07968839E-05  2.23843272E-05  6.71862363E-05  1.86535151E-04  4.65087534E-04  3.88453947E-04  2.71842058E-04  2.46166426E-04  3.77903780E-04  5.10645448E-04  5.53819467E-04  8.52287689E-04       0.00262371       0.00206074
         0.00205498       0.00109242       0.00144545       0.00112833  7.32088694E-04  6.82927726E-04  6.59656595E-04  4.31733817E-04  3.06702859E-04  3.06702859E-04  3.06702859E-04  3.06702859E-04  5.37363288E-04  5.37363288E-04  5.37363288E-04  5.37363288E-04  5.37363288E-04  5.37363288E-04  5.37363288E-04  5.37363288E-04
    5.37363288E-04  5.37363288E-04  5.37363288E-04  5.37363288E-04  5.37363288E-04  5.37363288E-04  5.37363288E-04  5.37363288E-04  4.37176466E-04  4.37176466E-04  4.37176466E-04  4.37176466E-04  3.42266867E-04  4.94453358E-04  3.54344054E-04  5.40514244E-04       0.00102665       0.00225112       0.00338997       0.00583568
         0.00321282       0.00121547       0.00233356       0.00139331       0.00187404       0.00127692       0.00203365       0.00449994       0.00273352       0.00150184  6.20954146E-04  1.48018284E-04  3.18170380E-04  4.63582866E-04  5.99247287E-04       0.00136507  4.82210249E-04  6.98730291E-04  5.89888543E-04  4.56664595E-04
    2.76929000E-04  2.08550642E-04  1.97921880E-04  3.27003101E-04  2.20956310E-04  1.82707328E-04  2.24671370E-04  3.20140127E-04  3.02707165E-04  1.90857740E-04  4.68956860E-05  7.63327334E-05  4.70175801E-05  4.50158950E-05  1.56202208E-04  9.01050298E-05  9.03465771E-05  4.37561976E-05  1.05367435E-04  6.97906580E-05
    5.25575742E-05  7.06124920E-05  7.18321171E-05  3.88602639E-05  4.63152355E-05  1.15316136E-04  6.25568733E-04  4.83274926E-04  3.31909920E-04  3.44762200E-04  2.09899998E-04  2.38039429E-04  2.21218710E-04  4.81863419E-04  5.36252570E-04       0.00184334       0.00254561       0.00140457       0.00225221       0.00113984
    2.96107639E-04  3.32680647E-04  1.93061627E-04  1.53926725E-04  2.74917460E-04  2.74917460E-04  2.74917460E-04  2.74917460E-04  2.66137882E-04  2.66137882E-04  2.66137882E-04  2.66137882E-04  2.66137882E-04  2.66137882E-04  2.66137882E-04  2.66137882E-04  2.66137882E-04  2.66137882E-04  2.66137882E-04  2.66137882E-04
    2.66137882E-04  2.66137882E-04  2.66137882E-04  2.66137882E-04  8.44207709E-04  8.44207709E-04  8.44207709E-04  8.44207709E-04  6.11686904E-04  6.45884080E-04  5.29378187E-04  9.16027406E-04  6.44607877E-04       0.00211630       0.00264000       0.00246986       0.00161655       0.00185918       0.00143831       0.00194542
         0.00132806       0.00142187       0.00126885       0.00206682       0.00295526       0.00229629  8.78811348E-04  5.59460430E-04  1.92493462E-04  2.49818579E-04  5.53537393E-04  8.72893608E-04  5.10389742E-04  3.95174895E-04  6.59706129E-04       0.00118366  8.19083303E-04  3.85836407E-04  9.23370390E-05  2.09718623E-04
    3.17187398E-04  4.79780720E-04  1.95744869E-04  2.96930230E-04  6.32118550E-04  5.69480646E-04  1.73442808E-04  2.79378964E-05  7.01566751E-05  5.28872479E-05  3.15553734E-05  4.18117052E-05  8.25645257E-05  3.88467779E-05  4.07237967E-05  5.76895072E-05  4.82165051E-05  6.46471963E-05  1.06882988E-04  8.83609900E-05
    6.13204465E-05  8.19994311E-05  8.40728753E-05  1.86537654E-04  1.42044344E-04  1.03687053E-04  1.91351370E-04  9.59766548E-05  1.08260654E-04  1.99630624E-04  3.96818825E-04  6.20468170E-04       0.00176865       0.00337584       0.00224167       0.00138326  4.33937268E-04  9.99578333E-05  1.53734291E-04  1.34943621E-04
    1.27941908E-04  1.27941908E-04  1.27941908E-04  1.27941908E-04  2.75791099E-04  2.75791099E-04  2.75791099E-04  2.75791099E-04  2.75791099E-04  2.75791099E-04  2.75791099E-04  2.75791099E-04  2.75791099E-04  2.75791099E-04  2.75791099E-04  2.75791099E-04  2.75791099E-04  2.75791099E-04  2.75791099E-04  2.75791099E-04
    6.00185420E-04  6.00185420E-04  6.00185420E-04  6.00185420E-04  9.73285059E-04       0.00144084       0.00156204  9.19026439E-04  7.09813321E-04  9.17524332E-04       0.00142123       0.00611509       0.00234126       0.00133784       0.00203580       0.00135247  7.75524590E-04  6.22987980E-04  6.01357548E-04  4.04971797E-04
    9.78304539E-04  5.43558330E-04  6.86749408E-04  7.02796620E-04  5.37211832E-04  2.82527355E-04  3.04057903E-04  6.10328221E-04  3.98549339E-04  3.31432122E-04  3.34569660E-04  5.61090186E-04  6.93212496E-04  6.34847733E-04  4.85544268E-04  3.55137774E-04  2.68550386E-04  3.12111690E-04  2.41515576E-04  1.59575167E-04
    2.44156196E-04  4.66902537E-04  3.49576731E-04  3.42638872E-04  1.20802040E-04  9.34769632E-05  7.08423686E-05  4.06818726E-05  2.88845167E-05  3.55320626E-05  3.59362675E-05  3.83075021E-05  4.43969657E-05  2.58359087E-05  4.63841352E-05  5.50609220E-05  5.87852664E-05  6.39882637E-05  1.41315657E-04  8.05191303E-05
    1.09158216E-04  7.31250548E-05  9.49035893E-05  9.03784603E-05  3.91737995E-05  7.68656173E-05  1.50100110E-04  3.09985946E-04  7.51012645E-04       0.00220312       0.00266014       0.00143266  9.28443158E-04  2.48981989E-04  1.14486138E-04  7.73007050E-05  1.08290267E-04  1.08290267E-04  1.08290267E-04  1.08290267E-04
    2.38489010E-04  2.38489010E-04  2.38489010E-04  2.38489010E-04  2.38489010E-04  2.38489010E-04  2.38489010E-04  2.38489010E-04  2.38489010E-04  2.38489010E-04  2.38489010E-04  2.38489010E-04  2.38489010E-04  2.38489010E-04  2.38489010E-04  2.38489010E-04  2.15297769E-04  2.15297769E-04  2.15297769E-04  2.15297769E-04
    4.52486594E-04  7.38605508E-04  5.28746867E-04  8.15109583E-04  6.76341879E-04  4.53923392E-04       0.00119195       0.00288655       0.00138310       0.00126400       0.00104111       0.00162176  8.28926044E-04       0.00132767  5.99052873E-04  3.28164082E-04  4.48676903E-04  2.31799626E-04  5.68159914E-04  6.64590625E-04
    5.09015226E-04  6.05719863E-04  8.70401214E-04  4.36703296E-04  4.53420915E-04  5.28221950E-04  3.85076535E-04  1.38493488E-04  3.20210587E-04  5.94157493E-04  3.37105332E-04  2.89627613E-04  2.57219566E-04  3.60086589E-04  1.63753284E-04  2.34072781E-04  2.56698928E-04  2.82715948E-04  2.88789190E-04  2.09021702E-04
    2.09833524E-04  2.16429646E-04  8.27636468E-05  2.75922484E-05  4.57209026E-05  5.55659644E-05  2.59647531E-05  2.80751519E-05  3.41668383E-05  2.27251949E-05  3.01625714E-05  6.67102067E-05  4.90577222E-05  4.66742677E-05  8.90255469E-05  6.88540676E-05  7.26408543E-05  1.14815950E-04  1.06308027E-04  6.46681438E-05
    3.23531785E-05  2.84129328E-05  8.33528902E-05  1.30159737E-04  1.29863678E-04  7.14111025E-04       0.00154877       0.00238400       0.00137304  5.34558145E-04  3.39065504E-04  2.59247201E-04  1.43454643E-04  1.43454643E-04  1.43454643E-04  1.43454643E-04  2.38695953E-04  2.38695953E-04  2.38695953E-04  2.38695953E-04
    2.38695953E-04  2.38695953E-04  2.38695953E-04  2.38695953E-04  2.38695953E-04  2.38695953E-04  2.38695953E-04  2.38695953E-04  2.38695953E-04  2.38695953E-04  2.38695953E-04  2.38695953E-04  1.59984047E-04  1.59984047E-04  1.59984047E-04  1.59984047E-04  3.19216109E-04  3.45745037E-04  6.69156783E-04  5.46227791E-04
    5.37798274E-04  5.34963154E-04  5.22240938E-04  4.88207879E-04  9.37134377E-04  7.51491520E-04  5.26873278E-04  8.24009767E-04       0.00137378  5.75838087E-04  3.62303166E-04  3.16678052E-04  1.66595390E-04  1.29372609E-04  2.96864950E-04  4.34547779E-04  5.77245373E-04  4.67704143E-04  4.02578211E-04  5.82828303E-04
    9.72772832E-04  7.97341811E-04  3.79070698E-04  1.85221405E-04  2.80059845E-04  1.87663551E-04  3.23724467E-04  2.95349106E-04  3.67383211E-04  2.36967666E-04  3.08591960E-04  2.59164488E-04  2.81347282E-04  3.08054121E-04  4.23577847E-04  2.22308663E-04  1.95334273E-04  1.72303553E-04  2.53715698E-04  9.86082887E-05
    1.00819969E-04  5.89160045E-05  2.04714597E-05  4.35668371E-05  3.18158309E-05  2.05354099E-05  3.07068840E-05  4.06370818E-05  1.08160886E-04  5.45149669E-05  6.77526623E-05  7.60672847E-05  4.66699857E-05  8.32143196E-05  2.13173902E-04  2.21657087E-04  7.92170031E-05  4.87262696E-05  3.48942995E-05  4.48808569E-05
    6.93752590E-05  1.15253875E-04  3.00340645E-04  5.38756023E-04  9.60465637E-04       0.00127085       0.00151537  4.95193060E-04  2.33667612E-04  2.33667612E-04  2.33667612E-04  2.33667612E-04  1.61962816E-04  1.61962816E-04  1.61962816E-04  1.61962816E-04  1.61962816E-04  1.61962816E-04  1.61962816E-04  1.61962816E-04
    1.61962816E-04  1.61962816E-04  1.61962816E-04  1.61962816E-04  1.61962816E-04  1.61962816E-04  1.61962816E-04  1.61962816E-04  1.11627916E-04  1.11627916E-04  1.11627916E-04  1.11627916E-04  2.40131340E-04  2.08449928E-04  1.82904827E-04  3.78043915E-04  7.01929035E-04  9.02226311E-04       0.00123439  5.69522323E-04
    3.73283459E-04  3.31145653E-04  3.76274576E-04  3.78482946E-04  5.41079673E-04  8.28006887E-04  3.54328309E-04  1.91953412E-04  1.80263625E-04  1.68562547E-04  1.18826822E-04  2.52303464E-04  7.62112380E-04  4.66634694E-04  3.61161394E-04  3.55135475E-04  4.91063925E-04  3.55479307E-04  8.01071641E-04  4.17318195E-04
    1.94376611E-04  1.72456173E-04  2.20270376E-04  2.10647151E-04  2.15460619E-04  6.06108864E-04  3.51126480E-04  4.06019069E-04  3.04079760E-04  4.45415790E-04  4.82107542E-04  7.17419374E-04  5.38956432E-04  5.70178847E-04  2.29498124E-04  3.31068120E-04  1.13854156E-04  1.36139657E-04  7.82777206E-05  3.45652152E-05
    3.89044508E-05  3.80697456E-05  2.14997617E-05  2.03303625E-05  2.22116632E-05  3.96189862E-05  2.41870584E-05  5.71536475E-05  8.49475691E-05  5.79567786E-05  9.21021128E-05  9.94825823E-05  2.25424388E-04  7.49921383E-05  4.60543706E-05  3.81086938E-05  1.05207371E-04  6.79995428E-05  1.00724545E-04  8.12212529E-05
    1.89720915E-04  6.65668573E-04  6.64722756E-04  4.39154741E-04  3.19230021E-04  3.19230021E-04  3.19230021E-04  3.19230021E-04  2.56076397E-04  2.56076397E-04  2.56076397E-04  2.56076397E-04  2.56076397E-04  2.56076397E-04  2.56076397E-04  2.56076397E-04  2.56076397E-04  2.56076397E-04  2.56076397E-04  2.56076397E-04
    2.56076397E-04  2.56076397E-04  2.56076397E-04  2.56076397E-04  2.67598196E-04  2.67598196E-04  2.67598196E-04  2.67598196E-04  9.72315174E-05  1.11506917E-04  9.26064604E-05  1.07921252E-04  5.56789397E-04  7.14848808E-04       0.00132766  8.23638053E-04  7.47520302E-04  4.35454480E-04  2.84324575E-04  2.21010268E-04
    2.12538813E-04  5.80768217E-04  5.10162208E-04  3.86174070E-04  1.95476154E-04  1.12596870E-04  1.32949484E-04  1.09870962E-04  9.62548802E-05  2.94022087E-04  2.65241863E-04  2.91578734E-04  2.19810841E-04  2.05410732E-04  2.76545994E-04  4.47763654E-04  2.51378282E-04  1.72674059E-04  2.87978095E-04  2.65295879E-04
    1.25514081E-04  4.68015962E-04  4.77595837E-04  4.21324861E-04  2.37085245E-04  4.88867401E-04  4.41330019E-04  4.68408078E-04  3.94473493E-04  3.65247717E-04  4.60159266E-04  3.87778418E-04  2.57989217E-04  6.46016197E-05  1.01652942E-04  3.79039520E-05  4.38051648E-05  2.98172708E-05  1.79386716E-05  1.73723074E-05
    2.44600506E-05  2.70597193E-05  3.50487935E-05  3.07054215E-05  4.89147897E-05  4.72130778E-05  1.11021538E-04  1.23787962E-04  1.61509146E-04  1.99703049E-04  1.03099876E-04  8.77869097E-05  4.11212786E-05  6.20942956E-05  1.32859161E-04  8.88770955E-05  1.51067827E-04  5.93411678E-04  4.55543399E-04  5.24266681E-04
    3.80644866E-04  3.80644866E-04  3.80644866E-04  3.80644866E-04  3.25110217E-04  3.25110217E-04  3.25110217E-04  3.25110217E-04  3.25110217E-04  3.25110217E-04  3.25110217E-04  3.25110217E-04  3.25110217E-04  3.25110217E-04  3.25110217E-04  3.25110217E-04  3.25110217E-04  3.25110217E-04  3.25110217E-04  3.25110217E-04
    4.80900577E-04  4.80900577E-04  4.80900577E-04  4.80900577E-04  3.73328861E-04  1.40755204E-04  1.01391786E-04  5.42944326E-05  1.75484165E-04  3.00713873E-04  3.54039599E-04  4.81523981E-04  7.77713780E-04       0.00131541  4.76360467E-04  3.43352964E-04  2.66311370E-04  2.87073461E-04  3.62591847E-04  4.44527075E-04
    5.09078731E-04  1.72865082E-04  1.03996645E-04  6.06734138E-05  7.91994898E-05  7.40600008E-05  6.71553280E-05  1.02385566E-04  3.13826051E-04  1.40062388E-04  1.40717617E-04  2.53812817E-04  3.32496857E-04  1.39444412E-04  3.03837762E-04  4.40603355E-04  6.64444175E-04  2.84037000E-04  3.27808608E-04  3.69188085E-04
    3.69188085E-04  3.69188085E-04  3.69188085E-04  3.69188085E-04  3.69188085E-04  3.69188085E-04  4.48798586E-04  3.71616450E-04  2.83346249E-04  3.26952664E-04  3.98979406E-04  3.97768890E-04  5.19281777E-04  3.31273739E-04  5.22111543E-04  7.50347390E-04  6.13763332E-05  3.69482004E-05  5.44310715E-05  3.19288338E-05
    4.36719201E-05  2.51099864E-05  1.48459330E-05  2.90484495E-05  4.26197039E-05  4.57822389E-05  6.79931327E-05  4.02716323E-05  4.49767867E-05  6.11226860E-05  1.35653943E-04  2.92329991E-04  1.71674168E-04  2.05727789E-04  1.11085290E-04  5.65199625E-05  4.73461805E-05  1.10439250E-04  1.19622695E-04  2.31944301E-04
    2.25732816E-04  3.03930952E-04  7.48470251E-04  7.48470251E-04  7.48470251E-04  7.48470251E-04  6.55574608E-04  6.55574608E-04  6.55574608E-04  6.55574608E-04  6.55574608E-04  6.55574608E-04  6.55574608E-04  6.55574608E-04  6.55574608E-04  6.55574608E-04  6.55574608E-04  6.55574608E-04  6.55574608E-04  6.55574608E-04
    6.55574608E-04  6.55574608E-04  3.31373420E-04  3.31373420E-04  3.31373420E-04  3.31373420E-04  3.17829777E-04  2.69693788E-04  1.67138292E-04  1.61172531E-04  2.90410069E-04  4.08292050E-04       0.00101101  6.28330861E-04  4.91225859E-04  6.17964426E-04  8.66529008E-04  2.38609355E-04  5.17977693E-04  2.62891350E-04
    2.58164131E-04  1.87708923E-04  4.41590033E-04  6.27479458E-04  2.64225615E-04  8.82738532E-05  5.40822111E-05  3.94250601E-05  2.34998533E-05  8.74298421E-05  1.68954444E-04  2.47663702E-04  2.54982093E-04  9.72806083E-05  1.46388134E-04  2.65556562E-04  2.13400519E-04  2.74101447E-04  2.64471339E-04  3.17500788E-04
    1.73563807E-04  1.73563807E-04  1.73563807E-04  1.73563807E-04  2.13174077E-04  2.13174077E-04  2.13174077E-04  2.13174077E-04  2.13174077E-04  2.13174077E-04  2.13174077E-04  2.13174077E-04  2.13174077E-04  2.13174077E-04  2.13174077E-04  2.13174077E-04  2.13174077E-04  6.23943633E-04  4.20485798E-04  8.74444086E-04
    7.97659100E-04  6.70564012E-04       0.00101089  7.85406213E-04  4.56494628E-04  6.51628419E-04       0.00146544       0.00202124  3.35939039E-05  3.68432775E-05  3.96334071E-05  3.47834757E-05  2.10939907E-05  3.41166815E-05  1.81522610E-05  3.74922565E-05  6.22432999E-05  5.53968530E-05  3.92288202E-05  3.07366354E-05
    4.26263468E-05  5.83012697E-05  2.06934506E-04  6.16161153E-04  7.65935692E-04  4.51129803E-04  4.88339458E-04  1.68074635E-04  8.24475792E-05  1.09379384E-04  1.05198109E-04  1.19511125E-04  1.52689623E-04  2.21462251E-04  2.21462251E-04  2.21462251E-04  2.21462251E-04  5.50245109E-04  5.50245109E-04  5.50245109E-04
    5.50245109E-04  5.50245109E-04  5.50245109E-04  5.50245109E-04  5.50245109E-04  5.50245109E-04  5.50245109E-04  5.50245109E-04  5.50245109E-04  5.50245109E-04  5.50245109E-04  5.50245109E-04  5.50245109E-04  6.05273526E-04  6.05273526E-04  6.05273526E-04  6.05273526E-04  5.43039758E-04  5.92355966E-04  4.31895169E-04
    2.17352295E-04  2.78009364E-04  5.25724667E-04  5.38323773E-04  8.28316843E-04       0.00132697  5.03711752E-04  3.99060023E-04  2.95493373E-04  1.05216823E-04  9.59674362E-05  1.47531959E-04  1.96273584E-04  8.41149886E-05  1.47861516E-04  1.49082553E-04  1.41948840E-04  6.83336475E-05  3.36601115E-05  2.52248501E-05
    1.45366976E-05  4.19417920E-05  9.83505452E-05  1.60305513E-04  4.31798981E-04  1.81402313E-04  2.47756136E-04  2.07683624E-04  4.33264184E-04  1.63153687E-04  2.46514450E-04  2.46514450E-04  2.46514450E-04  2.46514450E-04  3.93073395E-04  3.93073395E-04  3.93073395E-04  3.93073395E-04  3.93073395E-04  3.93073395E-04
    3.93073395E-04  3.93073395E-04  3.93073395E-04  3.93073395E-04  3.93073395E-04  3.93073395E-04  3.93073395E-04  3.99123353E-04  3.99123353E-04  3.99123353E-04  3.99123353E-04  3.99123353E-04  3.99123353E-04  3.99123353E-04  3.12522025E-04  7.89683836E-04  7.39186537E-04  7.63138989E-04       0.00103309  5.79911633E-04
    9.95654729E-04  9.94012691E-04  7.81809562E-04       0.00133828       0.00154596       0.00147445  1.47411984E-05  4.43961399E-05  2.76575993E-05  3.09593088E-05  2.37800668E-05  2.29968246E-05  6.78947836E-05  5.73097204E-05  5.67187963E-05  4.40801014E-05  5.32839331E-05  5.89406336E-05  4.23213860E-05  5.76240600E-05
    1.47796614E-04  4.59825998E-04  5.77683793E-04  5.06480515E-04  6.56009302E-04  3.28589929E-04  1.36909788E-04  1.62321317E-04  1.54327659E-04  2.16678658E-04  1.73951921E-04  1.73951921E-04  1.73951921E-04  1.73951921E-04  2.14196043E-04  2.14196043E-04  2.14196043E-04  2.14196043E-04  2.14196043E-04  2.14196043E-04
    2.14196043E-04  2.14196043E-04  2.14196043E-04  2.14196043E-04  2.14196043E-04  2.14196043E-04  2.14196043E-04  2.14196043E-04  2.14196043E-04  2.14196043E-04  2.48961296E-04  2.48961296E-04  2.48961296E-04  2.48961296E-04  2.85265618E-04  3.41696286E-04  5.34918217E-04  6.17042242E-04  6.05386216E-04  8.47251446E-04
    7.06401421E-04  6.72732072E-04  3.60711478E-04  3.64247215E-04  1.54197129E-04  1.31630091E-04  2.19828973E-04  1.05935207E-04  1.00180805E-04  1.06814710E-04  1.09144981E-04  1.49993517E-04  1.69871186E-04  1.09610977E-04  7.97523826E-05  4.74903936E-05  3.82656435E-05  1.42877152E-05  2.35968510E-05  4.55386216E-05
    3.46901616E-05  4.85629243E-05  1.17572527E-04  7.42792618E-05  6.95922354E-05  9.40214086E-05  1.83760974E-04  1.83760974E-04  1.83760974E-04  1.83760974E-04  1.58139999E-04  1.58139999E-04  1.58139999E-04  1.58139999E-04  1.58139999E-04  1.58139999E-04  1.58139999E-04  1.58139999E-04  1.58139999E-04  1.58139999E-04
    1.58139999E-04  1.58139999E-04  1.58139999E-04  2.85990216E-04  2.85990216E-04  2.85990216E-04  2.85990216E-04  2.85990216E-04  2.85990216E-04  2.85990216E-04  6.11250929E-04  4.61815158E-04  4.34003538E-04  6.60744845E-04  4.11710498E-04  5.87380258E-04  4.74049884E-04  5.65014023E-04  9.12129297E-04  6.64005114E-04
         0.00134591  9.71578294E-04       0.00139656       0.00160743  2.12008345E-05  3.93080991E-05  5.85124326E-05  2.81251450E-05  5.34554201E-05  2.78615917E-05  3.62929204E-05  6.54188771E-05  5.94370795E-05  7.27815714E-05  3.41479863E-05  8.84142792E-05  1.04467894E-04  1.13802897E-04  1.64306606E-04  4.24729806E-04
    6.87493943E-04  6.94730028E-04       0.00142253       0.00123761  3.49138107E-04  3.13500408E-04  2.00768234E-04  2.23792624E-04  2.23792624E-04  2.23792624E-04  2.23792624E-04  3.72677110E-04  3.72677110E-04  3.72677110E-04  3.72677110E-04  3.72677110E-04  3.72677110E-04  3.72677110E-04  3.72677110E-04  3.72677110E-04
    3.72677110E-04  3.72677110E-04  3.72677110E-04  3.72677110E-04  3.72677110E-04  3.72677110E-04  3.72677110E-04  3.02744447E-04  3.02744447E-04  3.02744447E-04  3.02744447E-04  4.06965293E-04  6.21432671E-04  3.97894531E-04  4.84421093E-04  6.86350686E-04  6.04292611E-04  4.46170423E-04  2.58565065E-04  2.92108307E-04
    1.00065794E-04  1.71811684E-04  6.46358822E-05  7.25515492E-05  3.24013963E-04  1.22280893E-04  8.51144869E-05  2.54492061E-05  4.41771263E-05  1.18055970E-04  6.68168577E-05  5.95091442E-05  3.46933521E-05  4.00125427E-05  2.41861489E-05  1.49738034E-05  2.83555328E-05  3.34538345E-05  5.92573779E-05  7.45916041E-05
    7.12069013E-05  3.43359679E-05  7.73833890E-05  7.73833890E-05  7.73833890E-05  7.73833890E-05  1.56448514E-04  1.56448514E-04  1.56448514E-04  1.56448514E-04  1.56448514E-04  1.56448514E-04  1.56448514E-04  1.56448514E-04  1.56448514E-04  1.56448514E-04  1.56448514E-04  1.56448514E-04  1.56448514E-04  6.75995179E-05
    6.75995179E-05  6.75995179E-05  6.75995179E-05  6.75995179E-05  6.75995179E-05  6.75995179E-05  6.35909892E-05  1.64349258E-04  6.01439911E-04       0.00104174  4.53384389E-04  3.96672287E-04  4.13315720E-04  5.08835597E-04  4.28024767E-04  4.73227847E-04  6.34860713E-04  4.91342857E-04       0.00131215  7.95724452E-04
    9.53281648E-04       0.00157999  3.19295032E-05  2.96783019E-05  1.93972191E-05  4.01973557E-05  3.37686797E-05  2.77464496E-05  2.97218648E-05  3.41847117E-05  3.34407414E-05  8.88841969E-05  1.29214546E-04  9.20330131E-05  1.38166666E-04  1.97255926E-04  8.80035077E-05  1.39869022E-04  5.66324336E-04  5.08396595E-04
         0.00104553  8.05719988E-04       0.00122832  6.78356737E-04  3.11655982E-04  3.11655982E-04  3.11655982E-04  3.11655982E-04  3.80603859E-04  3.80603859E-04  3.80603859E-04  3.80603859E-04  3.80603859E-04  3.80603859E-04  3.80603859E-04  3.80603859E-04  3.80603859E-04  3.80603859E-04  3.80603859E-04  3.80603859E-04
    3.80603859E-04  3.80603859E-04  3.80603859E-04  3.80603859E-04  5.28706412E-04  5.28706412E-04  5.28706412E-04  5.28706412E-04  7.00177043E-04  3.79057776E-04  5.68003859E-04  1.89658400E-04  4.73977823E-04  3.89552326E-04  2.37128465E-04  3.08647432E-04  1.76321220E-04  1.76690388E-04  1.00974692E-04  5.77605570E-05
    5.70328630E-05  9.44431740E-05  1.52818451E-04  7.78866379E-05  7.53645581E-05  3.51153867E-05  5.47780510E-05  9.61130354E-05  3.89291599E-05  2.86411687E-05  1.63703189E-05  5.43841179E-06  5.80577534E-06  1.08818358E-05  1.63150144E-05  5.25775104E-05  3.43273641E-05  9.39379315E-05  4.60157535E-05  4.60157535E-05
    4.60157535E-05  4.60157535E-05  2.49625300E-05  2.49625300E-05  2.49625300E-05  2.49625300E-05  2.49625300E-05  2.49625300E-05  2.49625300E-05  2.49625300E-05  2.49625300E-05  2.49625300E-05  2.49625300E-05  2.49625300E-05  2.49625300E-05  1.91289491E-05  1.91289491E-05  1.91289491E-05  1.91289491E-05  1.91289491E-05
    1.91289491E-05  1.91289491E-05  4.27705309E-05  5.25775395E-05  4.19298012E-05  7.71568375E-05  3.92485934E-04  4.89634753E-04  5.97857928E-04  9.25157219E-04       0.00110190  4.51480708E-04  5.36827196E-04  3.47504363E-04       0.00120659  9.34999494E-04  5.18487883E-04  4.91975283E-04       0.00127088       0.00181294
    5.52949568E-05  3.12009070E-05  3.12897973E-05  2.48610286E-05  2.45751326E-05  2.51033744E-05  4.67930295E-05  5.90913587E-05  6.14656019E-05  1.46233622E-04  1.42168210E-04  7.00237943E-05  1.91388113E-04  1.28914777E-04  1.50345746E-04  2.28123361E-04  2.35131825E-04  5.21034701E-04  6.63242536E-04       0.00165905
    7.70775485E-04  7.83770869E-04  7.83770869E-04  7.83770869E-04  7.83770869E-04  9.48146975E-04  9.48146975E-04  9.48146975E-04  9.48146975E-04  9.48146975E-04  9.48146975E-04  9.48146975E-04  9.48146975E-04  9.48146975E-04  9.48146975E-04  9.48146975E-04  9.48146975E-04  9.48146975E-04  9.48146975E-04  9.48146975E-04
    9.48146975E-04  2.62646325E-04  2.62646325E-04  2.62646325E-04  2.62646325E-04  4.11288056E-04  4.53588756E-04  3.74794501E-04  3.11305659E-04  1.62357188E-04  1.54968351E-04  3.27942980E-04  4.41018376E-04  2.71582860E-04  1.75744048E-04  1.10139124E-04  7.23202393E-05  5.64189031E-05  4.07365733E-05  1.07568376E-04
    1.03303457E-04  7.37950031E-05  6.35519682E-05  4.67490281E-05  5.22250921E-05  9.03783875E-05  5.11712569E-05  2.42288043E-05  8.52542234E-06  9.17459693E-06  5.01377144E-06  7.30541615E-06  1.26976247E-05  3.03325323E-05  2.93605426E-05  2.93605426E-05  2.93605426E-05  2.93605426E-05  7.24699639E-05  7.24699639E-05
    7.24699639E-05  7.24699639E-05  7.24699639E-05  7.24699639E-05  7.24699639E-05  7.24699639E-05  7.24699639E-05  7.24699639E-05  7.24699639E-05  7.24699639E-05  7.24699639E-05  4.09464155E-05  4.09464155E-05  4.09464155E-05  4.09464155E-05  4.09464155E-05  4.09464155E-05  4.09464155E-05  3.17766535E-05  3.05962094E-05
    4.35924303E-05  5.88002949E-05  9.10295421E-05  2.02352807E-04  1.87318627E-04  2.87537870E-04  2.95474660E-04       0.00187470       0.00106627  5.63280890E-04  6.29436050E-04  8.08273908E-04       0.00105763  7.52144726E-04  5.66062168E-04  5.33942890E-04  9.49358859E-04       0.00242012  2.86771137E-05  3.45262815E-05
    4.61328600E-05  5.82540888E-05  5.81122331E-05  4.73640102E-05  8.51220102E-05  8.75668338E-05  7.39614261E-05  1.17224736E-04  3.35706922E-04  1.23613572E-04  2.00151931E-04  3.90712550E-04  3.93268070E-04  3.57074343E-04  5.45565796E-04  6.37248158E-04  6.48250221E-04       0.00108741       0.00110753       0.00110753
         0.00110753       0.00110753  6.48967747E-04  6.48967747E-04  6.48967747E-04  6.48967747E-04  6.48967747E-04  6.48967747E-04  6.48967747E-04  6.48967747E-04  6.48967747E-04  6.48967747E-04  6.48967747E-04  6.48967747E-04  6.48967747E-04  6.48967747E-04  6.48967747E-04  6.48967747E-04  6.23238273E-04  6.23238273E-04
    6.23238273E-04  6.23238273E-04  2.06485216E-04  2.56538508E-04  2.54747254E-04  1.69000356E-04  1.36444083E-04  7.31615655E-05  1.49481770E-04  1.19328615E-04  2.10433238E-04  2.72713049E-04  7.67060992E-05  1.07857326E-04  1.77917405E-04  8.97245482E-05  9.67835949E-05  1.95830929E-04  3.24945897E-04  1.81663359E-04
    5.27917691E-05  5.54394828E-05  6.47634151E-05  5.43912174E-05  4.40551776E-05  3.04530950E-05  1.55628677E-05  1.65971469E-05  9.51585389E-06  9.09367918E-06  3.01923719E-05  3.01923719E-05  3.01923719E-05  3.01923719E-05  3.37626225E-05  3.37626225E-05  3.37626225E-05  3.37626225E-05  3.37626225E-05  3.37626225E-05
    3.37626225E-05  3.37626225E-05  3.37626225E-05  3.37626225E-05  3.37626225E-05  3.37626225E-05  3.37626225E-05  4.27287850E-05  4.27287850E-05  4.27287850E-05  4.27287850E-05  4.27287850E-05  4.27287850E-05  4.27287850E-05  4.41199154E-05  3.83036204E-05  3.87154505E-05  2.72069174E-05  5.78035724E-05  3.69207664E-05
    6.22134103E-05  7.72188650E-05  1.86927209E-04  2.59777909E-04  2.67521711E-04  3.09206545E-04  7.89700076E-04  5.69343450E-04  3.07762763E-04  3.51887546E-04  5.07531629E-04  3.60203558E-04  5.41860820E-04  9.04945133E-04  7.93870189E-04       0.00144740  1.87798250E-05  5.91553180E-05  4.98345908E-05  7.67762249E-05
    1.89816652E-04  1.16863652E-04  8.10019847E-05  5.47422278E-05  5.91917633E-05  1.20860677E-04  3.69651505E-04  1.77902548E-04  1.47018713E-04  2.09486752E-04  1.82547650E-04  3.61285172E-04  3.22151318E-04  5.60330402E-04  6.34458556E-04       0.00129620       0.00129620       0.00129620       0.00129620       0.00104438