# File generated by Flopy version 3.3.3 on 11/03/2021 at 14:31:28.
BEGIN options
  BUDGET  FILEOUT  syn_model.cbc
  HEAD  FILEOUT  syn_model.hds
END options

BEGIN period  1
  SAVE  HEAD  LAST
  SAVE  BUDGET  LAST
  PRINT  HEAD  LAST
END period  1

