# File generated by Flopy version 3.3.3 on 11/03/2021 at 14:31:27.
BEGIN options
  LENGTH_UNITS  meters
  XORIGIN       0.00000000
  YORIGIN       0.00000000
END options

BEGIN dimensions
  NLAY  1
  NCPL  10662
  NVERT  11422
END dimensions

BEGIN griddata
  top
    INTERNAL  FACTOR  1.0
        40.00000000      40.00000000      40.00000000      40.00000000      40.00000000      40.00000000      40.00000000      40.00000000      40.00000000      40.00000000      40.00000000      40.00000000      40.00000000      40.00000000      40.00000000      40.00000000      40.00000000      40.00000000      40.00000000      40.00000000
        40.00000000      40.00000000      40.00000000      40.00000000      40.00000000      40.00000000      40.00000000      40.00000000      40.00000000      40.00000000      40.00000000      40.00000000      40.00000000      40.00000000      40.00000000      40.00000000      40.00000000      40.00000000      40.00000000      40.00000000
        40.00000000      40.00000000      40.00000000      40.00000000      40.00000000      40.00000000      40.00000000      40.00000000      40.00000000      40.00000000      40.00000000      40.00000000      40.00000000      40.00000000      40.00000000      40.00000000      40.00000000      40.00000000      40.00000000      40.00000000
        40.00000000      40.00000000      40.00000000      40.00000000      40.00000000      40.00000000      40.00000000      40.00000000      40.00000000      40.00000000      40.00000000      40.00000000      40.00000000      40.00000000      40.00000000      40.00000000      40.00000000      40.00000000      40.00000000      40.00000000
        40.00000000      40.00000000      40.00000000      40.00000000      40.00000000      40.00000000      40.00000000      40.00000000      40.00000000      40.00000000      40.00000000      40.00000000      40.00000000      40.00000000      40.00000000      40.00000000      40.00000000      40.00000000      40.00000000      40.00000000
        40.00000000      40.00000000      40.00000000      40.00000000      40.00000000      40.00000000      40.00000000      40.00000000      40.00000000      40.00000000      40.00000000      40.00000000      40.00000000      40.00000000      40.00000000      40.00000000      40.00000000      40.00000000      40.00000000      40.00000000
        40.00000000      40.00000000      40.00000000      40.00000000      40.00000000      40.00000000      40.00000000      40.00000000      40.00000000      40.00000000      40.00000000      40.00000000      40.00000000      40.00000000      40.00000000      40.00000000      40.00000000      40.00000000      40.00000000      40.00000000
        40.00000000      40.00000000      40.00000000      40.00000000      40.00000000      40.00000000      40.00000000      40.00000000      40.00000000      40.00000000      40.00000000      40.00000000      40.00000000      40.00000000      40.00000000      40.00000000      40.00000000      40.00000000      40.00000000      40.00000000
        40.00000000      40.00000000      40.00000000      40.00000000      40.00000000      40.00000000      40.00000000      40.00000000      40.00000000      40.00000000      40.00000000      40.00000000      40.00000000      40.00000000      40.00000000      40.00000000      40.00000000      40.00000000      40.00000000      40.00000000
        40.00000000      40.00000000      40.00000000      40.00000000      40.00000000      40.00000000      40.00000000      40.00000000      40.00000000      40.00000000      40.00000000      40.00000000      40.00000000      40.00000000      40.00000000      40.00000000      40.00000000      40.00000000      40.00000000      40.00000000
        40.00000000      40.00000000      40.00000000      40.00000000      40.00000000      40.00000000      40.00000000      40.00000000      40.00000000      40.00000000      40.00000000      40.00000000      40.00000000      40.00000000      40.00000000      40.00000000      40.00000000      40.00000000      40.00000000      40.00000000
        40.00000000      40.00000000      40.00000000      40.00000000      40.00000000      40.00000000      40.00000000      40.00000000      40.00000000      40.00000000      40.00000000      40.00000000      40.00000000      40.00000000      40.00000000      40.00000000      40.00000000      40.00000000      40.00000000      40.00000000
        40.00000000      40.00000000      40.00000000      40.00000000      40.00000000      40.00000000      40.00000000      40.00000000      40.00000000      40.00000000      40.00000000      40.00000000      40.00000000      40.00000000      40.00000000      40.00000000      40.00000000      40.00000000      40.00000000      40.00000000
        40.00000000      40.00000000      40.00000000      40.00000000      40.00000000      40.00000000      40.00000000      40.00000000      40.00000000      40.00000000      40.00000000      40.00000000      40.00000000      40.00000000      40.00000000      40.00000000      40.00000000      40.00000000      40.00000000      40.00000000
        40.00000000      40.00000000      40.00000000      40.00000000      40.00000000      40.00000000      40.00000000      40.00000000      40.00000000      40.00000000      40.00000000      40.00000000      40.00000000      40.00000000      40.00000000      40.00000000      40.00000000      40.00000000      40.00000000      40.00000000
        40.00000000      40.00000000      40.00000000      40.00000000      40.00000000      40.00000000      40.00000000      40.00000000      40.00000000      40.00000000      40.00000000      40.00000000      40.00000000      40.00000000      40.00000000      40.00000000      40.00000000      40.00000000      40.00000000      40.00000000
        40.00000000      40.00000000      40.00000000      40.00000000      40.00000000      40.00000000      40.00000000      40.00000000      40.00000000      40.00000000      40.00000000      40.00000000      40.00000000      40.00000000      40.00000000      40.00000000      40.00000000      40.00000000      40.00000000      40.00000000
        40.00000000      40.00000000      40.00000000      40.00000000      40.00000000      40.00000000      40.00000000      40.00000000      40.00000000      40.00000000      40.00000000      40.00000000      40.00000000      40.00000000      40.00000000      40.00000000      40.00000000      40.00000000      40.00000000      40.00000000
        40.00000000      40.00000000      40.00000000      40.00000000      40.00000000      40.00000000      40.00000000      40.00000000      40.00000000      40.00000000      40.00000000      40.00000000      40.00000000      40.00000000      40.00000000      40.00000000      40.00000000      40.00000000      40.00000000      40.00000000
        40.00000000      40.00000000      40.00000000      40.00000000      40.00000000      40.00000000      40.00000000      40.00000000      40.00000000      40.00000000      40.00000000      40.00000000      40.00000000      40.00000000      40.00000000      40.00000000      40.00000000      40.00000000      40.00000000      40.00000000
        40.00000000      40.00000000      40.00000000      40.00000000      40.00000000      40.00000000      40.00000000      40.00000000      40.00000000      40.00000000      40.00000000      40.00000000      40.00000000      40.00000000      40.00000000      40.00000000      40.00000000      40.00000000      40.00000000      40.00000000
        40.00000000      40.00000000      40.00000000      40.00000000      40.00000000      40.00000000      40.00000000      40.00000000      40.00000000      40.00000000      40.00000000      40.00000000      40.00000000      40.00000000      40.00000000      40.00000000      40.00000000      40.00000000      40.00000000      40.00000000
        40.00000000      40.00000000      40.00000000      40.00000000      40.00000000      40.00000000      40.00000000      40.00000000      40.00000000      40.00000000      40.00000000      40.00000000      40.00000000      40.00000000      40.00000000      40.00000000      40.00000000      40.00000000      40.00000000      40.00000000
        40.00000000      40.00000000      40.00000000      40.00000000      40.00000000      40.00000000      40.00000000      40.00000000      40.00000000      40.00000000      40.00000000      40.00000000      40.00000000      40.00000000      40.00000000      40.00000000      40.00000000      40.00000000      40.00000000      40.00000000
        40.00000000      40.00000000      40.00000000      40.00000000      40.00000000      40.00000000      40.00000000      40.00000000      40.00000000      40.00000000      40.00000000      40.00000000      40.00000000      40.00000000      40.00000000      40.00000000      40.00000000      40.00000000      40.00000000      40.00000000
        40.00000000      40.00000000      40.00000000      40.00000000      40.00000000      40.00000000      40.00000000      40.00000000      40.00000000      40.00000000      40.00000000      40.00000000      40.00000000      40.00000000      40.00000000      40.00000000      40.00000000      40.00000000      40.00000000      40.00000000
        40.00000000      40.00000000      40.00000000      40.00000000      40.00000000      40.00000000      40.00000000      40.00000000      40.00000000      40.00000000      40.00000000      40.00000000      40.00000000      40.00000000      40.00000000      40.00000000      40.00000000      40.00000000      40.00000000      40.00000000
        40.00000000      40.00000000      40.00000000      40.00000000      40.00000000      40.00000000      40.00000000      40.00000000      40.00000000      40.00000000      40.00000000      40.00000000      40.00000000      40.00000000      40.00000000      40.00000000      40.00000000      40.00000000      40.00000000      40.00000000
        40.00000000      40.00000000      40.00000000      40.00000000      40.00000000      40.00000000      40.00000000      40.00000000      40.00000000      40.00000000      40.00000000      40.00000000      40.00000000      40.00000000      40.00000000      40.00000000      40.00000000      40.00000000      40.00000000      40.00000000
        40.00000000      40.00000000      40.00000000      40.00000000      40.00000000      40.00000000      40.00000000      40.00000000      40.00000000      40.00000000      40.00000000      40.00000000      40.00000000      40.00000000      40.00000000      40.00000000      40.00000000      40.00000000      40.00000000      40.00000000
        40.00000000      40.00000000      40.00000000      40.00000000      40.00000000      40.00000000      40.00000000      40.00000000      40.00000000      40.00000000      40.00000000      40.00000000      40.00000000      40.00000000      40.00000000      40.00000000      40.00000000      40.00000000      40.00000000      40.00000000
        40.00000000      40.00000000      40.00000000      40.00000000      40.00000000      40.00000000      40.00000000      40.00000000      40.00000000      40.00000000      40.00000000      40.00000000      40.00000000      40.00000000      40.00000000      40.00000000      40.00000000      40.00000000      40.00000000      40.00000000
        40.00000000      40.00000000      40.00000000      40.00000000      40.00000000      40.00000000      40.00000000      40.00000000      40.00000000      40.00000000      40.00000000      40.00000000      40.00000000      40.00000000      40.00000000      40.00000000      40.00000000      40.00000000      40.00000000      40.00000000
        40.00000000      40.00000000      40.00000000      40.00000000      40.00000000      40.00000000      40.00000000      40.00000000      40.00000000      40.00000000      40.00000000      40.00000000      40.00000000      40.00000000      40.00000000      40.00000000      40.00000000      40.00000000      40.00000000      40.00000000
        40.00000000      40.00000000      40.00000000      40.00000000      40.00000000      40.00000000      40.00000000      40.00000000      40.00000000      40.00000000      40.00000000      40.00000000      40.00000000      40.00000000      40.00000000      40.00000000      40.00000000      40.00000000      40.00000000      40.00000000
        40.00000000      40.00000000      40.00000000      40.00000000      40.00000000      40.00000000      40.00000000      40.00000000      40.00000000      40.00000000      40.00000000      40.00000000      40.00000000      40.00000000      40.00000000      40.00000000      40.00000000      40.00000000      40.00000000      40.00000000
        40.00000000      40.00000000      40.00000000      40.00000000      40.00000000      40.00000000      40.00000000      40.00000000      40.00000000      40.00000000      40.00000000      40.00000000      40.00000000      40.00000000      40.00000000      40.00000000      40.00000000      40.00000000      40.00000000      40.00000000
        40.00000000      40.00000000      40.00000000      40.00000000      40.00000000      40.00000000      40.00000000      40.00000000      40.00000000      40.00000000      40.00000000      40.00000000      40.00000000      40.00000000      40.00000000      40.00000000      40.00000000      40.00000000      40.00000000      40.00000000
        40.00000000      40.00000000      40.00000000      40.00000000      40.00000000      40.00000000      40.00000000      40.00000000      40.00000000      40.00000000      40.00000000      40.00000000      40.00000000      40.00000000      40.00000000      40.00000000      40.00000000      40.00000000      40.00000000      40.00000000
        40.00000000      40.00000000      40.00000000      40.00000000      40.00000000      40.00000000      40.00000000      40.00000000      40.00000000      40.00000000      40.00000000      40.00000000      40.00000000      40.00000000      40.00000000      40.00000000      40.00000000      40.00000000      40.00000000      40.00000000
        40.00000000      40.00000000      40.00000000      40.00000000      40.00000000      40.00000000      40.00000000      40.00000000      40.00000000      40.00000000      40.00000000      40.00000000      40.00000000      40.00000000      40.00000000      40.00000000      40.00000000      40.00000000      40.00000000      40.00000000
        40.00000000      40.00000000      40.00000000      40.00000000      40.00000000      40.00000000      40.00000000      40.00000000      40.00000000      40.00000000      40.00000000      40.00000000      40.00000000      40.00000000      40.00000000      40.00000000      40.00000000      40.00000000      40.00000000      40.00000000
        40.00000000      40.00000000      40.00000000      40.00000000      40.00000000      40.00000000      40.00000000      40.00000000      40.00000000      40.00000000      40.00000000      40.00000000      40.00000000      40.00000000      40.00000000      40.00000000      40.00000000      40.00000000      40.00000000      40.00000000
        40.00000000      40.00000000      40.00000000      40.00000000      40.00000000      40.00000000      40.00000000      40.00000000      40.00000000      40.00000000      40.00000000      40.00000000      40.00000000      40.00000000      40.00000000      40.00000000      40.00000000      40.00000000      40.00000000      40.00000000
        40.00000000      40.00000000      40.00000000      40.00000000      40.00000000      40.00000000      40.00000000      40.00000000      40.00000000      40.00000000      40.00000000      40.00000000      40.00000000      40.00000000      40.00000000      40.00000000      40.00000000      40.00000000      40.00000000      40.00000000
        40.00000000      40.00000000      40.00000000      40.00000000      40.00000000      40.00000000      40.00000000      40.00000000      40.00000000      40.00000000      40.00000000      40.00000000      40.00000000      40.00000000      40.00000000      40.00000000      40.00000000      40.00000000      40.00000000      40.00000000
        40.00000000      40.00000000      40.00000000      40.00000000      40.00000000      40.00000000      40.00000000      40.00000000      40.00000000      40.00000000      40.00000000      40.00000000      40.00000000      40.00000000      40.00000000      40.00000000      40.00000000      40.00000000      40.00000000      40.00000000
        40.00000000      40.00000000      40.00000000      40.00000000      40.00000000      40.00000000      40.00000000      40.00000000      40.00000000      40.00000000      40.00000000      40.00000000      40.00000000      40.00000000      40.00000000      40.00000000      40.00000000      40.00000000      40.00000000      40.00000000
        40.00000000      40.00000000      40.00000000      40.00000000      40.00000000      40.00000000      40.00000000      40.00000000      40.00000000      40.00000000      40.00000000      40.00000000      40.00000000      40.00000000      40.00000000      40.00000000      40.00000000      40.00000000      40.00000000      40.00000000
        40.00000000      40.00000000      40.00000000      40.00000000      40.00000000      40.00000000      40.00000000      40.00000000      40.00000000      40.00000000      40.00000000      40.00000000      40.00000000      40.00000000      40.00000000      40.00000000      40.00000000      40.00000000      40.00000000      40.00000000
        40.00000000      40.00000000      40.00000000      40.00000000      40.00000000      40.00000000      40.00000000      40.00000000      40.00000000      40.00000000      40.00000000      40.00000000      40.00000000      40.00000000      40.00000000      40.00000000      40.00000000      40.00000000      40.00000000      40.00000000
        40.00000000      40.00000000      40.00000000      40.00000000      40.00000000      40.00000000      40.00000000      40.00000000      40.00000000      40.00000000      40.00000000      40.00000000      40.00000000      40.00000000      40.00000000      40.00000000      40.00000000      40.00000000      40.00000000      40.00000000
        40.00000000      40.00000000      40.00000000      40.00000000      40.00000000      40.00000000      40.00000000      40.00000000      40.00000000      40.00000000      40.00000000      40.00000000      40.00000000      40.00000000      40.00000000      40.00000000      40.00000000      40.00000000      40.00000000      40.00000000
        40.00000000      40.00000000      40.00000000      40.00000000      40.00000000      40.00000000      40.00000000      40.00000000      40.00000000      40.00000000      40.00000000      40.00000000      40.00000000      40.00000000      40.00000000      40.00000000      40.00000000      40.00000000      40.00000000      40.00000000
        40.00000000      40.00000000      40.00000000      40.00000000      40.00000000      40.00000000      40.00000000      40.00000000      40.00000000      40.00000000      40.00000000      40.00000000      40.00000000      40.00000000      40.00000000      40.00000000      40.00000000      40.00000000      40.00000000      40.00000000
        40.00000000      40.00000000      40.00000000      40.00000000      40.00000000      40.00000000      40.00000000      40.00000000      40.00000000      40.00000000      40.00000000      40.00000000      40.00000000      40.00000000      40.00000000      40.00000000      40.00000000      40.00000000      40.00000000      40.00000000
        40.00000000      40.00000000      40.00000000      40.00000000      40.00000000      40.00000000      40.00000000      40.00000000      40.00000000      40.00000000      40.00000000      40.00000000      40.00000000      40.00000000      40.00000000      40.00000000      40.00000000      40.00000000      40.00000000      40.00000000
        40.00000000      40.00000000      40.00000000      40.00000000      40.00000000      40.00000000      40.00000000      40.00000000      40.00000000      40.00000000      40.00000000      40.00000000      40.00000000      40.00000000      40.00000000      40.00000000      40.00000000      40.00000000      40.00000000      40.00000000
        40.00000000      40.00000000      40.00000000      40.00000000      40.00000000      40.00000000      40.00000000      40.00000000      40.00000000      40.00000000      40.00000000      40.00000000      40.00000000      40.00000000      40.00000000      40.00000000      40.00000000      40.00000000      40.00000000      40.00000000
        40.00000000      40.00000000      40.00000000      40.00000000      40.00000000      40.00000000      40.00000000      40.00000000      40.00000000      40.00000000      40.00000000      40.00000000      40.00000000      40.00000000      40.00000000      40.00000000      40.00000000      40.00000000      40.00000000      40.00000000
        40.00000000      40.00000000      40.00000000      40.00000000      40.00000000      40.00000000      40.00000000      40.00000000      40.00000000      40.00000000      40.00000000      40.00000000      40.00000000      40.00000000      40.00000000      40.00000000      40.00000000      40.00000000      40.00000000      40.00000000
        40.00000000      40.00000000      40.00000000      40.00000000      40.00000000      40.00000000      40.00000000      40.00000000      40.00000000      40.00000000      40.00000000      40.00000000      40.00000000      40.00000000      40.00000000      40.00000000      40.00000000      40.00000000      40.00000000      40.00000000
        40.00000000      40.00000000      40.00000000      40.00000000      40.00000000      40.00000000      40.00000000      40.00000000      40.00000000      40.00000000      40.00000000      40.00000000      40.00000000      40.00000000      40.00000000      40.00000000      40.00000000      40.00000000      40.00000000      40.00000000
        40.00000000      40.00000000      40.00000000      40.00000000      40.00000000      40.00000000      40.00000000      40.00000000      40.00000000      40.00000000      40.00000000      40.00000000      40.00000000      40.00000000      40.00000000      40.00000000      40.00000000      40.00000000      40.00000000      40.00000000
        40.00000000      40.00000000      40.00000000      40.00000000      40.00000000      40.00000000      40.00000000      40.00000000      40.00000000      40.00000000      40.00000000      40.00000000      40.00000000      40.00000000      40.00000000      40.00000000      40.00000000      40.00000000      40.00000000      40.00000000
        40.00000000      40.00000000      40.00000000      40.00000000      40.00000000      40.00000000      40.00000000      40.00000000      40.00000000      40.00000000      40.00000000      40.00000000      40.00000000      40.00000000      40.00000000      40.00000000      40.00000000      40.00000000      40.00000000      40.00000000
        40.00000000      40.00000000      40.00000000      40.00000000      40.00000000      40.00000000      40.00000000      40.00000000      40.00000000      40.00000000      40.00000000      40.00000000      40.00000000      40.00000000      40.00000000      40.00000000      40.00000000      40.00000000      40.00000000      40.00000000
        40.00000000      40.00000000      40.00000000      40.00000000      40.00000000      40.00000000      40.00000000      40.00000000      40.00000000      40.00000000      40.00000000      40.00000000      40.00000000      40.00000000      40.00000000      40.00000000      40.00000000      40.00000000      40.00000000      40.00000000
        40.00000000      40.00000000      40.00000000      40.00000000      40.00000000      40.00000000      40.00000000      40.00000000      40.00000000      40.00000000      40.00000000      40.00000000      40.00000000      40.00000000      40.00000000      40.00000000      40.00000000      40.00000000      40.00000000      40.00000000
        40.00000000      40.00000000      40.00000000      40.00000000      40.00000000      40.00000000      40.00000000      40.00000000      40.00000000      40.00000000      40.00000000      40.00000000      40.00000000      40.00000000      40.00000000      40.00000000      40.00000000      40.00000000      40.00000000      40.00000000
        40.00000000      40.00000000      40.00000000      40.00000000      40.00000000      40.00000000      40.00000000      40.00000000      40.00000000      40.00000000      40.00000000      40.00000000      40.00000000      40.00000000      40.00000000      40.00000000      40.00000000      40.00000000      40.00000000      40.00000000
        40.00000000      40.00000000      40.00000000      40.00000000      40.00000000      40.00000000      40.00000000      40.00000000      40.00000000      40.00000000      40.00000000      40.00000000      40.00000000      40.00000000      40.00000000      40.00000000      40.00000000      40.00000000      40.00000000      40.00000000
        40.00000000      40.00000000      40.00000000      40.00000000      40.00000000      40.00000000      40.00000000      40.00000000      40.00000000      40.00000000      40.00000000      40.00000000      40.00000000      40.00000000      40.00000000      40.00000000      40.00000000      40.00000000      40.00000000      40.00000000
        40.00000000      40.00000000      40.00000000      40.00000000      40.00000000      40.00000000      40.00000000      40.00000000      40.00000000      40.00000000      40.00000000      40.00000000      40.00000000      40.00000000      40.00000000      40.00000000      40.00000000      40.00000000      40.00000000      40.00000000
        40.00000000      40.00000000      40.00000000      40.00000000      40.00000000      40.00000000      40.00000000      40.00000000      40.00000000      40.00000000      40.00000000      40.00000000      40.00000000      40.00000000      40.00000000      40.00000000      40.00000000      40.00000000      40.00000000      40.00000000
        40.00000000      40.00000000      40.00000000      40.00000000      40.00000000      40.00000000      40.00000000      40.00000000      40.00000000      40.00000000      40.00000000      40.00000000      40.00000000      40.00000000      40.00000000      40.00000000      40.00000000      40.00000000      40.00000000      40.00000000
        40.00000000      40.00000000      40.00000000      40.00000000      40.00000000      40.00000000      40.00000000      40.00000000      40.00000000      40.00000000      40.00000000      40.00000000      40.00000000      40.00000000      40.00000000      40.00000000      40.00000000      40.00000000      40.00000000      40.00000000
        40.00000000      40.00000000      40.00000000      40.00000000      40.00000000      40.00000000      40.00000000      40.00000000      40.00000000      40.00000000      40.00000000      40.00000000      40.00000000      40.00000000      40.00000000      40.00000000      40.00000000      40.00000000      40.00000000      40.00000000
        40.00000000      40.00000000      40.00000000      40.00000000      40.00000000      40.00000000      40.00000000      40.00000000      40.00000000      40.00000000      40.00000000      40.00000000      40.00000000      40.00000000      40.00000000      40.00000000      40.00000000      40.00000000      40.00000000      40.00000000
        40.00000000      40.00000000      40.00000000      40.00000000      40.00000000      40.00000000      40.00000000      40.00000000      40.00000000      40.00000000      40.00000000      40.00000000      40.00000000      40.00000000      40.00000000      40.00000000      40.00000000      40.00000000      40.00000000      40.00000000
        40.00000000      40.00000000      40.00000000      40.00000000      40.00000000      40.00000000      40.00000000      40.00000000      40.00000000      40.00000000      40.00000000      40.00000000      40.00000000      40.00000000      40.00000000      40.00000000      40.00000000      40.00000000      40.00000000      40.00000000
        40.00000000      40.00000000      40.00000000      40.00000000      40.00000000      40.00000000      40.00000000      40.00000000      40.00000000      40.00000000      40.00000000      40.00000000      40.00000000      40.00000000      40.00000000      40.00000000      40.00000000      40.00000000      40.00000000      40.00000000
        40.00000000      40.00000000      40.00000000      40.00000000      40.00000000      40.00000000      40.00000000      40.00000000      40.00000000      40.00000000      40.00000000      40.00000000      40.00000000      40.00000000      40.00000000      40.00000000      40.00000000      40.00000000      40.00000000      40.00000000
        40.00000000      40.00000000      40.00000000      40.00000000      40.00000000      40.00000000      40.00000000      40.00000000      40.00000000      40.00000000      40.00000000      40.00000000      40.00000000      40.00000000      40.00000000      40.00000000      40.00000000      40.00000000      40.00000000      40.00000000
        40.00000000      40.00000000      40.00000000      40.00000000      40.00000000      40.00000000      40.00000000      40.00000000      40.00000000      40.00000000      40.00000000      40.00000000      40.00000000      40.00000000      40.00000000      40.00000000      40.00000000      40.00000000      40.00000000      40.00000000
        40.00000000      40.00000000      40.00000000      40.00000000      40.00000000      40.00000000      40.00000000      40.00000000      40.00000000      40.00000000      40.00000000      40.00000000      40.00000000      40.00000000      40.00000000      40.00000000      40.00000000      40.00000000      40.00000000      40.00000000