# File generated by Flopy version 3.3.3 on 11/09/2021 at 09:44:55.
BEGIN options
  SAVE_FLOWS
  SAVE_SPECIFIC_DISCHARGE
END options

BEGIN griddata
  icelltype
    CONSTANT  0
  k
    INTERNAL  FACTOR  1.0
    4.45443819E-05  4.81875187E-05  7.29580010E-05  6.63971252E-05  6.19810048E-05  5.45811698E-05  3.55842683E-05  3.28396387E-05  5.10100291E-05  3.86883042E-05  4.18165578E-05  7.05383641E-05  3.52732354E-05  3.11532376E-05  4.49684393E-05  5.22270653E-05  4.48245578E-05  5.93521698E-05  4.77586001E-05  3.42529406E-05
    4.16855307E-05  3.67327119E-05  4.38905440E-05  2.34632864E-05  3.01004377E-05  3.48827664E-05  3.64123488E-05  2.58630907E-05  2.27470601E-05  1.74788247E-05  1.70126546E-05  1.28254327E-05  1.57816597E-05  2.31708370E-05  3.61965906E-05  5.41409223E-05  7.62704907E-05  6.83097623E-05  6.01161477E-05  7.74002148E-05
    6.44398915E-05  6.65556768E-05  5.97493186E-05  6.80834083E-05  6.79259458E-05  7.62912829E-05  7.36965547E-05  8.15652999E-05  6.57006613E-05  5.51929452E-05  6.67137370E-05  5.79918892E-05  5.63900555E-05  8.71953326E-05  6.57925177E-05  7.60853003E-05  1.31060781E-04  1.24051802E-04  1.07769018E-04  1.12627426E-04
    7.11653938E-05  6.83860247E-05  8.11406162E-05  1.13659063E-04  8.12566969E-05  1.34680783E-04  9.24007267E-05  6.16614059E-05  6.51929482E-05  8.56917606E-05  6.26342200E-05  5.47778692E-05  4.57360722E-05  3.28934798E-05  3.83289986E-05  7.50169534E-05  4.77597541E-05  4.99047068E-05  6.32805570E-05  5.65342857E-05
    4.19106619E-05  7.91547164E-05  6.90057390E-05  1.40164275E-04  1.10945169E-04  9.59755514E-05  8.38697822E-05  6.28238631E-05  4.73867038E-05  7.45276745E-05  6.01087651E-05  4.17836419E-05  5.42991638E-05  5.38307869E-05  2.96204537E-05  5.38527644E-05  9.04186087E-05  7.75012484E-05  6.86289788E-05  9.75258301E-05
    6.41947876E-05  4.65146319E-05  5.65063106E-05  5.96363443E-05  1.06354252E-04  1.02462664E-04  8.48388426E-05  3.83172286E-05  4.56462695E-05  3.63727186E-05  3.59101468E-05  5.91514834E-05  5.90917130E-05  4.16765302E-05  3.69257738E-05  4.96897341E-05  4.33815319E-05  3.31143777E-05  4.70212081E-05  4.69500947E-05
    4.23959121E-05  5.66034565E-05  4.00191506E-05  2.29998303E-05  2.06863703E-05  1.75881972E-05  2.21127866E-05  2.63370744E-05  3.33915631E-05  2.81368408E-05  2.55945094E-05  3.70764611E-05  4.90786350E-05  5.93381548E-05  5.74551040E-05  7.58607748E-05  6.25773575E-05  7.60370620E-05  8.32242515E-05  7.52028485E-05
    7.28711720E-05  8.05211634E-05  8.37142663E-05  8.59163174E-05  7.61803071E-05  9.71692629E-05  8.88786339E-05  8.24277714E-05  1.02821194E-04  8.33376683E-05  1.02648394E-04  6.88935712E-05  1.05093490E-04  8.34038554E-05  7.39923399E-05  6.63005484E-05  7.57080414E-05  5.85058006E-05  4.77682658E-05  5.99548885E-05
    8.16427782E-05  9.72030715E-05  6.48132741E-05  1.28590015E-04  6.76797661E-05  5.10841090E-05  4.70327234E-05  3.70656141E-05  2.76518231E-05  6.26580482E-05  4.92111619E-05  5.37916546E-05  7.64363162E-05  5.06605722E-05  3.63407391E-05  5.79065667E-05  5.29542816E-05  6.72157446E-05  7.33793671E-05  8.63270524E-05
    8.98099580E-05  1.15466692E-04  9.55715965E-05  1.23766420E-04  8.53376041E-05  1.47900842E-04  1.45006778E-04  9.79607623E-05  6.40949167E-05  4.72713457E-05  4.61712800E-05  4.96559043E-05  1.08445648E-04  8.75636571E-05  9.55584947E-05  1.02940803E-04  6.87916474E-05  5.69977979E-05  3.98206559E-05  6.38507397E-05
    1.27104444E-04  1.71832516E-04  1.06206483E-04  7.85819580E-05  3.36449319E-05  2.95940865E-05  6.92399213E-05  1.20857683E-04  8.42196128E-05  3.99870519E-05  2.43448458E-05  2.82303114E-05  5.94037905E-05  6.30501312E-05  5.54050572E-05  8.42696204E-05  6.64000385E-05  4.52712026E-05  2.98100874E-05  4.01734548E-05
    2.31289094E-05  2.53914351E-05  2.83119978E-05  2.02899105E-05  3.34213658E-05  3.73301512E-05  3.48161239E-05  4.52015528E-05  5.51989390E-05  6.13319006E-05  6.64605048E-05  5.43095939E-05  8.52740830E-05  8.76756668E-05  7.38620421E-05  5.95888927E-05  7.12795094E-05  6.83207300E-05  7.59784717E-05  6.62919101E-05
    5.97159796E-05  6.21840076E-05  4.77688619E-05  4.80852323E-05  6.19618401E-05  7.18590676E-05  5.67027889E-05  9.03902456E-05  7.27415864E-05  5.67477970E-05  7.86316568E-05  8.03046450E-05  6.78357639E-05  5.27578990E-05  7.22046284E-05  5.49643513E-05  6.26713263E-05  6.22133945E-05  5.10486869E-05  6.42258571E-05
    1.28003774E-04  5.66783140E-05  3.56036818E-05  2.88417247E-05  3.61354867E-05  5.05447492E-05  5.90511115E-05  5.11106712E-05  3.11744267E-05  3.58194598E-05  4.81136290E-05  5.05047582E-05  6.23586824E-05  6.74704166E-05  7.84852585E-05  5.18572379E-05  8.44615662E-05  1.05391856E-04  1.27368652E-04  1.70504650E-04
    1.46421087E-04  1.65449092E-04  1.31492331E-04  1.31765712E-04  7.61877081E-05  5.88640745E-05  4.71816749E-05  5.30734656E-05  7.59119330E-05  6.80514433E-05  7.97248551E-05  5.66580044E-05  6.03904678E-05  5.23323070E-05  7.79314563E-05  1.00853798E-04  1.09339685E-04  1.35637472E-04  9.80354140E-05  6.06182923E-05
    4.75305985E-05  5.15763063E-05  6.06600350E-05  8.44833379E-05  6.63884884E-05  4.17234303E-05  2.68815207E-05  4.67999279E-05  6.85460597E-05  7.91320281E-05  1.14746191E-04  8.99324074E-05  6.16398310E-05  6.51716134E-05  3.61198503E-05  2.67058655E-05  1.86475337E-05  2.04270367E-05  1.92126759E-05  3.69252222E-05
    3.01751160E-05  5.17329175E-05  4.25874228E-05  6.19434119E-05  5.64673374E-05  5.74136653E-05  5.21767007E-05  7.68421910E-05  5.01448532E-05  5.75372150E-05  6.46133040E-05  7.77815047E-05  5.31483303E-05  7.49633635E-05  6.61900465E-05  7.20268229E-05  6.23950432E-05  8.22376576E-05  7.05717238E-05  7.29076849E-05
    6.88146885E-05  8.86822131E-05  8.19997029E-05  9.62123955E-05  7.12859818E-05  7.01197580E-05  6.67692687E-05  5.16778762E-05  4.30870651E-05  3.44817692E-05  6.05718643E-05  7.42073990E-05  6.42439291E-05  7.05511642E-05  6.45983236E-05  4.75018945E-05  6.70946273E-05  5.39925245E-05  6.77231284E-05  3.84031980E-05
    3.94461956E-05  3.25973495E-05  2.87397285E-05  2.31926173E-05  3.06315159E-05  3.09977064E-05  4.36426256E-05  5.72805133E-05  5.24798447E-05  3.89531105E-05  4.94784679E-05  6.71122009E-05  9.61678829E-05  9.69236344E-05  1.56003049E-04  1.22090147E-04  1.38391589E-04  1.83818968E-04  1.71173364E-04  7.19252297E-05
    1.04464502E-04  6.78443690E-05  7.48167921E-05  5.94502822E-05  1.33306268E-04  1.09783691E-04  9.14837415E-05  1.00348046E-04  7.17553916E-05  9.12690807E-05  1.13235763E-04  1.64177963E-04  1.28699687E-04  1.18915044E-04  1.03074559E-04  4.90263552E-05  4.63369372E-05  7.18291876E-05  9.12680381E-05  5.89277629E-05
    4.68154871E-05  5.08097165E-05  2.59678865E-05  4.18767688E-05  4.83067259E-05  6.14476117E-05  6.87656348E-05  7.64887665E-05  5.94475386E-05  3.87754390E-05  3.65405211E-05  3.34151271E-05  3.11498341E-05  2.37353954E-05  2.35802704E-05  3.02299502E-05  3.38567363E-05  5.14084305E-05  6.67052747E-05  4.91119290E-05
    5.93531180E-05  8.19798943E-05  5.73270560E-05  5.20160094E-05  6.00348839E-05  8.14851398E-05  7.03683742E-05  6.35129927E-05  8.26610049E-05  6.91459861E-05  8.27091363E-05  5.36652952E-05  5.18106229E-05  6.81479150E-05  6.73447087E-05  5.93540296E-05  7.41428744E-05  5.35365109E-05  6.01419918E-05  4.15238642E-05
    5.53272164E-05  3.23456729E-05  4.16793045E-05  4.83438165E-05  3.60274713E-05  4.95243682E-05  7.77735606E-05  6.67977189E-05  8.34072181E-05  4.20356869E-05  4.60676266E-05  7.10305139E-05  5.18519016E-05  3.59578899E-05  4.58268900E-05  3.73712869E-05  4.70580830E-05  4.40872085E-05  4.37664912E-05  2.68533663E-05
    4.13521081E-05  2.73555111E-05  5.05654655E-05  5.58906027E-05  6.79887706E-05  5.04944145E-05  5.08503579E-05  4.98304210E-05  8.37144568E-05  1.11507876E-04  1.39814294E-04  1.71547611E-04  1.38478365E-04  8.12555920E-05  6.47085218E-05  6.72483427E-05  5.20627659E-05  3.52352675E-05  7.12724012E-05  4.89895514E-05
    8.69620322E-05  1.02040683E-04  1.31361274E-04  1.50027172E-04  1.47797379E-04  1.35664694E-04  9.84025936E-05  1.17464974E-04  1.64782484E-04  1.28800271E-04  8.84582969E-05  1.09703054E-04  7.69224125E-05  4.01880530E-05  9.07149968E-05  6.34519989E-05  4.97443343E-05  6.27870538E-05  5.17653522E-05  3.48537761E-05
    3.92414179E-05  3.00629968E-05  3.14535537E-05  4.08845378E-05  4.76668211E-05  4.40845066E-05  2.80969586E-05  3.29667361E-05  3.29478301E-05  3.27376457E-05  2.13632659E-05  2.78102359E-05  4.32409899E-05  4.24014907E-05  8.09153241E-05  1.11961269E-04  8.28297338E-05  6.21275492E-05  7.22306945E-05  5.00943189E-05
    7.14087466E-05  5.44864867E-05  5.70173257E-05  4.24746463E-05  5.07335760E-05  3.92733770E-05  3.84660046E-05  4.06703257E-05  4.89050883E-05  4.72179733E-05  5.08443491E-05  4.09920799E-05  3.41813982E-05  3.25279420E-05  3.51469572E-05  4.48115633E-05  4.96221337E-05  6.05342750E-05  4.66705905E-05  6.05601037E-05
    4.25829094E-05  4.17712938E-05  1.20261944E-04  9.45846432E-05  6.88716516E-05  6.67123449E-05  5.70569056E-05  6.95384580E-05  8.18522736E-05  6.59591906E-05  4.50841251E-05  3.64010114E-05  3.30247274E-05  3.74278983E-05  3.35727971E-05  4.17237885E-05  3.56107170E-05  3.00863486E-05  4.43550497E-05  5.41121847E-05
    4.60548146E-05  6.21590859E-05  7.37525750E-05  8.09964036E-05  1.22673858E-04  6.15343678E-05  9.93830422E-05  8.98342519E-05  7.44000550E-05  6.73295237E-05  4.22607192E-05  3.29558337E-05  3.86661798E-05  3.37782893E-05  4.29569709E-05  7.28410230E-05  6.22842209E-05  8.03102109E-05  1.03421045E-04  2.02252219E-04
    2.30636329E-04  7.72215524E-05  1.09102664E-04  1.41553896E-04  1.38894277E-04  1.97616505E-04  1.82597021E-04  1.41254118E-04  1.18870205E-04  8.21089467E-05  4.06305687E-05  4.51928533E-05  5.45509991E-05  4.30497417E-05  5.62603000E-05  6.14498771E-05  3.34277801E-05  1.38613802E-05  2.01795886E-05  1.59946579E-05
    3.01364085E-05  4.35854934E-05  4.17358574E-05  2.35968999E-05  2.78689947E-05  1.75480675E-05  2.24823173E-05  3.58600117E-05  4.43350293E-05  5.09371445E-05  6.64141489E-05  6.03058875E-05  7.61692608E-05  6.18643415E-05  5.65981152E-05  7.89366675E-05  4.75699127E-05  4.48959520E-05  5.53121872E-05  5.11701752E-05
    4.35781428E-05  4.33979442E-05  4.30802853E-05  4.39630208E-05  5.09984350E-05  4.87652529E-05  5.79204101E-05  4.12851655E-05  3.95647161E-05  4.17198528E-05  5.14140391E-05  5.11835058E-05  4.37885716E-05  5.48590742E-05  4.82984390E-05  3.94326596E-05  6.29563200E-05  9.50249983E-05  7.65013136E-05  1.27957402E-04
    1.03840776E-04  9.68479942E-05  8.31768200E-05  1.25166739E-04  8.47877347E-05  6.34208495E-05  8.67073702E-05  4.62656922E-05  2.57317122E-05  4.02242601E-05  4.00029515E-05  2.77310374E-05  4.76149311E-05  5.23760661E-05  3.23244807E-05  6.10097882E-05  3.95796291E-05  5.41775197E-05  6.36749754E-05  8.64571518E-05
    1.02406961E-04  9.91723651E-05  6.07338010E-05  5.52644300E-05  5.25571013E-05  7.32316601E-05  7.73508424E-05  4.89161850E-05  2.87537462E-05  3.49496090E-05  3.96119903E-05  3.98498560E-05  6.49232521E-05  1.11992832E-04  1.59439861E-04  1.78195482E-04  2.04368768E-04  1.51272392E-04  1.35344213E-04  1.17184199E-04
    2.23271609E-04  1.69933579E-04  1.35013323E-04  1.48811056E-04  1.00570740E-04  4.92244475E-05  6.93850910E-05  3.59173842E-05  3.78978014E-05  5.06646442E-05  3.74573044E-05  3.13319071E-05  2.17285724E-05  1.29250259E-05  9.99137837E-06  1.54755484E-05  2.21421507E-05  3.07241665E-05  3.24109340E-05  2.13775673E-05
    3.13336346E-05  2.76552744E-05  5.09535015E-05  4.88939663E-05  4.71969311E-05  4.92649845E-05  4.59387257E-05  4.58392510E-05  6.16175713E-05  6.42372326E-05  8.48627217E-05  8.05532629E-05  5.68802476E-05  5.06049155E-05  6.55185123E-05  6.98163765E-05  5.76507048E-05  6.17969601E-05  6.16794980E-05  6.32624960E-05
    5.91020338E-05  6.74929779E-05  7.52834554E-05  6.76077664E-05  7.56733208E-05  5.95588211E-05  4.63529959E-05  4.95504892E-05  4.52026666E-05  5.60154816E-05  4.80750011E-05  7.08188986E-05  4.74442310E-05  6.14767268E-05  7.63707000E-05  1.27640137E-04  1.12502563E-04  1.43349587E-04  7.92069069E-05  8.20909365E-05
    9.04517105E-05  1.10503015E-04  4.56011040E-05  5.56580322E-05  3.27272414E-05  3.60745391E-05  4.57212387E-05  7.00719321E-05  4.53132154E-05  4.30898153E-05  4.61672989E-05  4.45310667E-05  5.71748500E-05  1.26298186E-04  9.26214283E-05  6.16045072E-05  5.95326207E-05  8.44989720E-05  4.91729053E-05  6.65982420E-05
    6.80881531E-05  5.99404223E-05  4.27212531E-05  3.82080492E-05  2.55351124E-05  3.27408069E-05  4.44537468E-05  3.58716449E-05  5.02001023E-05  7.12670795E-05  9.52923137E-05  1.49869679E-04  1.78032746E-04  1.42514317E-04  1.29660107E-04  1.37492145E-04  1.37090478E-04  3.27776148E-04  1.98345853E-04  1.48682928E-04
    1.12787211E-04  6.87277519E-05  6.12430403E-05  5.68829594E-05  5.56639840E-05  3.53046564E-05  2.67955084E-05  2.54562631E-05  2.57255716E-05  2.12798300E-05  2.73690618E-05  3.26967346E-05  2.27940801E-05  3.30140969E-05  2.49429882E-05  1.30641937E-05  2.67016033E-05  3.91236554E-05  4.31474856E-05  5.98928420E-05
    4.79160616E-05  4.42390675E-05  6.08005029E-05  4.78110373E-05  5.81768665E-05  6.53173800E-05  6.54086785E-05  8.78939895E-05  7.08885985E-05  6.65073800E-05  5.75454219E-05  7.00236322E-05  4.71347003E-05  4.76274624E-05  5.68973083E-05  6.56385986E-05  6.59279374E-05  7.63703513E-05  1.01091640E-04  7.50466512E-05
    8.66725685E-05  6.52817716E-05  7.71364910E-05  8.18917969E-05  5.05126617E-05  6.30118439E-05  7.68849091E-05  4.87547969E-05  4.73102764E-05  3.92123527E-05  4.35481607E-05  8.44800601E-05  1.35504525E-04  8.79532369E-05  7.86778279E-05  5.68142209E-05  7.20647721E-05  7.38322683E-05  7.68793151E-05  7.83467045E-05
    3.93743369E-05  4.32881366E-05  3.81659626E-05  4.80919628E-05  5.04632906E-05  3.90542246E-05  3.25584046E-05  6.55469068E-05  8.97992482E-05  9.73733446E-05  1.03700893E-04  1.12841916E-04  6.81133608E-05  7.75258798E-05  8.81284696E-05  7.57679387E-05  6.81958944E-05  7.28980917E-05  3.98539579E-05  3.40126425E-05
    2.83034168E-05  2.93248218E-05  2.39555511E-05  4.04879421E-05  4.62722468E-05  4.86273654E-05  5.81842398E-05  1.10543806E-04  1.64068016E-04  1.38744700E-04  1.94405516E-04  1.47049495E-04  1.27353598E-04  1.28393737E-04  1.20287194E-04  1.23497224E-04  9.69838670E-05  8.70260029E-05  5.79302571E-05  6.96502058E-05
    4.43721473E-05  4.48855979E-05  3.56607764E-05  3.73257396E-05  3.93412766E-05  3.48916558E-05  2.29310147E-05  3.26226058E-05  4.10486011E-05  3.22307892E-05  2.44399429E-05  2.26444270E-05  1.50894849E-05  2.98021135E-05  5.20671178E-05  7.26457381E-05  4.50488967E-05  8.29797633E-05  6.05151680E-05  4.88961545E-05
    5.40756989E-05  6.92964753E-05  4.58935703E-05  4.61533220E-05  8.92663238E-05  8.65085466E-05  6.68036745E-05  7.72521973E-05  8.80630399E-05  7.11294630E-05  9.93810641E-05  7.00072968E-05  6.99351334E-05  5.34013197E-05  6.53806954E-05  6.87599254E-05  8.67601728E-05  7.78169060E-05  7.58223401E-05  9.10768331E-05
    5.90328161E-05  5.01840284E-05  7.47684352E-05  5.35506036E-05  5.34023835E-05  4.83962277E-05  5.48725325E-05  9.82456129E-05  1.51708519E-04  1.20318458E-04  8.12422933E-05  5.65070820E-05  6.21100990E-05  7.20978975E-05  9.32154511E-05  9.49076658E-05  6.57858102E-05  2.86156964E-05  3.68847358E-05  6.42425828E-05
    7.71534992E-05  5.39587552E-05  5.60745645E-05  5.12833424E-05  5.15392530E-05  7.89644621E-05  8.01162543E-05  9.87789551E-05  1.09325148E-04  9.53158609E-05  1.05871158E-04  9.72273337E-05  9.49455774E-05  5.10041900E-05  6.01845258E-05  3.69805847E-05  3.29844472E-05  2.79993509E-05  2.29245712E-05  2.66403556E-05
    2.53617779E-05  1.98699101E-05  2.39557871E-05  1.69563770E-05  1.62506072E-05  1.86940013E-05  3.26620443E-05  6.21221563E-05  5.97833149E-05  1.01819932E-04  1.16272273E-04  1.58551974E-04  1.34097897E-04  1.14499021E-04  1.05305862E-04  6.86696030E-05  4.85823663E-05  5.52523343E-05  5.66549137E-05  5.83761515E-05
    5.65116068E-05  6.60905649E-05  4.28259644E-05  3.92544715E-05  3.12045766E-05  4.11913175E-05  4.32515560E-05  3.99155793E-05  3.08189908E-05  3.81248744E-05  3.58284918E-05  4.09441855E-05  2.30961798E-05  2.34296825E-05  3.05149818E-05  2.86538432E-05  3.83326917E-05  4.47292536E-05  5.14357449E-05  7.14481443E-05
    6.03676099E-05  8.27097030E-05  6.63952434E-05  4.93317143E-05  7.57272147E-05  6.74535423E-05  6.32321109E-05  7.09985832E-05  6.31116721E-05  8.14425812E-05  8.09378991E-05  8.35847142E-05  7.13649149E-05  8.03783989E-05  6.30019095E-05  7.37204871E-05  8.56492136E-05  1.16563874E-04  8.75958433E-05  7.57972534E-05
    6.52232709E-05  7.48552462E-05  6.52450697E-05  9.33166107E-05  7.46492550E-05  8.54826539E-05  7.22910053E-05  3.94256771E-05  1.03809819E-04  8.55929125E-05  6.84600411E-05  7.45383113E-05  6.67976526E-05  4.06356627E-05  7.94097344E-05  1.00187795E-04  1.18762058E-04  9.46112828E-05  9.15519624E-05  5.52129610E-05
    4.92266802E-05  5.91631045E-05  1.10396534E-04  5.49137566E-05  5.37066177E-05  4.51718775E-05  5.88328374E-05  8.24874028E-05  1.34573074E-04  1.22869867E-04  1.41628164E-04  1.21300969E-04  1.17996380E-04  1.16026323E-04  6.40154177E-05  5.13389029E-05  4.26412605E-05  2.34947997E-05  3.09169912E-05  3.35705229E-05
    2.32104378E-05  1.88500837E-05  2.41231942E-05  1.85337206E-05  1.47043492E-05  2.10897446E-05  2.21047635E-05  2.16630072E-05  2.79928603E-05  2.52931646E-05  2.67132455E-05  3.04252988E-05  3.55783787E-05  3.20570244E-05  2.58290018E-05  4.00575616E-05  3.84478107E-05  5.53047888E-05  4.42686121E-05  5.28198794E-05
    7.65616849E-05  9.26067121E-05  1.08612247E-04  1.26300262E-04  9.62412878E-05  6.94726642E-05  7.66871944E-05  6.52728955E-05  5.11589815E-05  4.43866976E-05  5.00419293E-05  4.58005592E-05  6.00678511E-05  8.04787730E-05  5.06287121E-05  4.41604696E-05  4.28258707E-05  4.55626855E-05  3.23303964E-05  2.81609480E-05
    3.83257528E-05  3.11822931E-05  3.55270081E-05  1.49172400E-05  1.75977278E-05  2.38127343E-05  2.42783384E-05  2.08534147E-05  2.57722056E-05  2.79450125E-05  3.67672038E-05  4.64575899E-05  6.89673628E-05  9.32005029E-05  1.23658396E-04  8.35680433E-05  1.24436888E-04  1.14792337E-04  1.17451687E-04  1.42626219E-04
    1.09353924E-04  7.90581666E-05  7.86149520E-05  9.15422031E-05  8.27662477E-05  1.40735294E-04  1.10333169E-04  1.06657767E-04  9.91534767E-05  1.07079685E-04  8.78817906E-05  8.95987228E-05  1.01636975E-04  7.33875751E-05  8.72141929E-05  8.14443522E-05  6.76202105E-05  7.87606318E-05  6.30049211E-05  6.68659541E-05
    8.47997563E-05  7.15159005E-05  4.92993979E-05  5.16727165E-05  4.94152441E-05  8.34384138E-05  6.96039545E-05  9.89508786E-05  8.18481233E-05  5.71945773E-05  8.52435330E-05  7.54332220E-05  4.47461913E-05  6.79754562E-05  7.75621119E-05  3.77716465E-05  4.39620526E-05  8.95751764E-05  6.54212206E-05  1.45866277E-04
    1.27289045E-04  1.43037298E-04  1.04792548E-04  9.52781492E-05  8.02270150E-05  8.19073638E-05  5.07065332E-05  5.72973231E-05  4.35426584E-05  3.20043236E-05  2.33824666E-05  3.14995489E-05  2.49258283E-05  3.46415428E-05  3.75989556E-05  3.16725084E-05  2.85426969E-05  3.13583355E-05  3.96054175E-05  3.07628086E-05
    2.70144982E-05  2.84275575E-05  3.52361501E-05  4.43652232E-05  4.76490436E-05  3.75331049E-05  4.81843185E-05  3.75508115E-05  4.13580270E-05  4.40733645E-05  4.40915849E-05  3.52624437E-05  4.20381247E-05  4.67721914E-05  6.26665039E-05  6.88633105E-05  8.57332724E-05  7.63629311E-05  5.39342411E-05  5.37871367E-05
    7.77700562E-05  6.70427997E-05  7.90354753E-05  6.31228626E-05  3.90269166E-05  4.38996634E-05  4.20181827E-05  3.66320868E-05  6.69055892E-05  7.89308429E-05  6.21798709E-05  9.28345014E-05  8.36491196E-05  4.54288018E-05  7.03311023E-05  4.19421320E-05  2.91311937E-05  2.40870731E-05  3.58792108E-05  2.68886420E-05
    3.72681425E-05  2.83028643E-05  1.94832086E-05  1.44140140E-05  2.35554806E-05  2.54264366E-05  3.04326592E-05  3.88482279E-05  3.01177182E-05  4.53161914E-05  9.16411692E-05  8.24194276E-05  5.71760413E-05  8.41005175E-05  1.06248197E-04  8.57490156E-05  8.81622010E-05  1.03996173E-04  1.08382227E-04  1.04528938E-04
    1.17759082E-04  1.22569672E-04  1.01120190E-04  8.42251093E-05  7.54461835E-05  1.03832715E-04  1.14265734E-04  1.40783166E-04  1.01992360E-04  1.32286084E-04  9.87414448E-05  1.61234546E-04  1.44747327E-04  1.69073738E-04  1.39027621E-04  8.54872410E-05  7.37153266E-05  8.19220052E-05  3.98167988E-05  4.96149603E-05
    5.45830965E-05  4.09851987E-05  5.53139568E-05  4.43612229E-05  3.62439884E-05  4.96097317E-05  6.74799787E-05  5.03039634E-05  6.67014724E-05  6.63139514E-05  3.00298447E-05  2.95344234E-05  3.77336253E-05  3.41540925E-05  5.55855422E-05  1.01244904E-04  7.97170303E-05  1.03786721E-04  1.21772286E-04  8.58901784E-05
    5.68119104E-05  6.80990656E-05  6.03541382E-05  7.58017126E-05  1.01705128E-04  6.03143542E-05  4.64187901E-05  2.78147275E-05  5.03223159E-05  5.64274340E-05  3.00181504E-05  2.33963108E-05  2.65919871E-05  2.70521888E-05  3.06686025E-05  4.22227245E-05  3.22380805E-05  4.69487604E-05  3.75471198E-05  2.93526286E-05
    2.98347602E-05  3.59431204E-05  3.40467037E-05  3.04536555E-05  4.28243951E-05  3.04929295E-05  4.06613928E-05  4.61631754E-05  3.49878020E-05  3.01289901E-05  7.03584228E-05  7.21244892E-05  8.16516142E-05  5.70251896E-05  4.75441922E-05  5.24588533E-05  4.52926646E-05  4.77927219E-05  4.80609134E-05  3.69259437E-05
    3.59496764E-05  5.34349370E-05  2.36165832E-05  3.98982027E-05  3.78834156E-05  4.94709180E-05  6.68074977E-05  8.10487373E-05  8.19502629E-05  8.02317463E-05  6.29644484E-05  4.72712723E-05  5.27574636E-05  8.26850483E-05  5.56034375E-05  3.87519752E-05  4.18612638E-05  5.02230109E-05  3.27713770E-05  4.18424995E-05
    2.85494632E-05  2.42311861E-05  2.35118748E-05  2.95350373E-05  2.39591285E-05  4.45895583E-05  4.92867320E-05  7.26626799E-05  7.60337636E-05  6.62970205E-05  9.56413211E-05  7.72985957E-05  9.01136190E-05  7.90857319E-05  9.69726467E-05  1.08336754E-04  9.41460921E-05  1.02558723E-04  1.03059178E-04  8.80915353E-05
    9.08208196E-05  1.25893635E-04  1.28196728E-04  1.06438986E-04  1.02680740E-04  9.99392132E-05  6.21254304E-05  1.18536754E-04  1.31307927E-04  9.01158204E-05  8.97195336E-05  7.38635683E-05  7.01723487E-05  6.61618461E-05  7.16435218E-05  4.01561745E-05  3.15126789E-05  2.11243136E-05  4.60027861E-05  3.65924920E-05
    3.71411574E-05  3.21155326E-05  4.76686476E-05  3.72487798E-05  7.38803354E-05  7.20270339E-05  5.80547333E-05  4.87539355E-05  2.59598866E-05  2.12513465E-05  4.80411679E-05  8.57296949E-05  1.21757449E-04  1.21464911E-04  7.44691650E-05  5.89138818E-05  6.70694366E-05  6.24679108E-05  7.84506231E-05  6.24106072E-05
    8.46636629E-05  6.98594927E-05  5.13743109E-05  4.93721406E-05  6.70470804E-05  7.34523399E-05  6.10656326E-05  5.74164175E-05  5.14459033E-05  5.44657901E-05  4.94285399E-05  6.76250222E-05  6.88515151E-05  5.21457120E-05  5.62209014E-05  5.62930610E-05  5.00244459E-05  7.25788621E-05  6.53177133E-05  4.13107112E-05
    3.63458276E-05  4.81853355E-05  4.25005299E-05  4.23962698E-05  5.08179295E-05  5.80188184E-05  4.19689153E-05  1.17406094E-04  6.84005705E-05  4.72023985E-05  3.28671038E-05  2.76821173E-05  2.95598948E-05  5.48636145E-05  5.09822791E-05  4.32863967E-05  2.58508994E-05  1.90319488E-05  2.14251220E-05  3.58912626E-05
    4.40784823E-05  3.61025141E-05  5.08203175E-05  4.96724541E-05  5.30479779E-05  6.00786573E-05  5.51934378E-05  3.58176768E-05  8.25193336E-05  8.50300211E-05  7.57970437E-05  5.26965429E-05  5.38355459E-05  3.36121767E-05  3.57605676E-05  4.55324561E-05  3.45368806E-05  3.68814883E-05  3.47300450E-05  1.97003109E-05
    3.01701490E-05  3.48203398E-05  4.76462721E-05  5.28071949E-05  8.86219797E-05  8.46168464E-05  9.50654167E-05  8.20739129E-05  1.35367346E-04  1.05098075E-04  9.36529332E-05  7.71301506E-05  9.51209007E-05  7.48108029E-05  7.77362593E-05  8.90832732E-05  9.22291833E-05  6.28685317E-05  6.79428197E-05  6.65436713E-05
    6.74736022E-05  8.78003863E-05  5.82581688E-05  7.05838449E-05  8.78135505E-05  6.28687799E-05  8.61271819E-05  6.64151872E-05  7.33221024E-05  5.22406287E-05  5.46839055E-05  6.08408213E-05  6.53908374E-05  6.14731825E-05  2.70896367E-05  2.43150733E-05  2.68831053E-05  2.48576511E-05  2.66908046E-05  4.73467467E-05
    4.93926173E-05  6.19908418E-05  5.14250227E-05  4.12320784E-05  2.80018645E-05  3.99287726E-05  4.20648903E-05  9.30664934E-05  8.31310411E-05  9.72846912E-05  6.17656271E-05  4.08137247E-05  6.32848118E-05  7.92929173E-05  6.56925523E-05  1.10076937E-04  9.75127874E-05  8.75419304E-05  6.92917425E-05  8.80913251E-05
    7.43449368E-05  7.31477628E-05  1.00887284E-04  8.39417608E-05  6.27814963E-05  6.51975063E-05  6.09256610E-05  8.63301697E-05  8.91294084E-05  1.01983396E-04  7.38159038E-05  6.49444178E-05  5.49236435E-05  6.10775040E-05  4.95593657E-05  5.22113108E-05  5.43330166E-05  5.24861024E-05  5.63853828E-05  5.17340152E-05
    5.18491502E-05  6.22641598E-05  6.09297315E-05  5.22707676E-05  8.25882065E-05  3.73797178E-05  5.05204799E-05  4.50129502E-05  3.23153285E-05  5.10585803E-05  4.67912021E-05  4.94259303E-05  4.27170457E-05  2.82650603E-05  1.50041872E-05  9.81120326E-06  2.24196231E-05  4.67858641E-05  4.18632483E-05  3.33533613E-05
    5.30394503E-05  4.77443373E-05  6.82428107E-05  5.27040592E-05  5.47212534E-05  7.06339240E-05  7.64653782E-05  6.85682602E-05  4.79871703E-05  3.50785828E-05  4.66160300E-05  4.46785702E-05  4.59207161E-05  5.14669724E-05  4.09808406E-05  2.61420521E-05  3.65249204E-05  3.57726848E-05  4.26428629E-05  4.75572061E-05
    5.91139650E-05  8.16309343E-05  5.02643900E-05  5.50185371E-05  6.94903649E-05  5.80094257E-05  6.08086601E-05  4.40738015E-05  6.24751750E-05  6.37288352E-05  6.82637286E-05  5.00805076E-05  7.26139946E-05  5.66778745E-05  5.30064921E-05  5.21022728E-05  6.09319170E-05  4.68381375E-05  6.64019985E-05  7.05858956E-05
    6.93101143E-05  6.89835485E-05  8.18357617E-05  6.84392757E-05  6.01405087E-05  6.45571368E-05  5.05427071E-05  5.31685121E-05  5.91625767E-05  3.44781614E-05  6.18356860E-05  3.44869517E-05  2.09955913E-05  2.83701665E-05  2.87527345E-05  2.56427174E-05  3.61312053E-05  3.89008098E-05  3.33050043E-05  4.07143605E-05
    3.20550201E-05  3.36206021E-05  3.60526639E-05  3.50694524E-05  8.19015810E-05  7.73211974E-05  5.80892055E-05  5.05984489E-05  3.90032323E-05  5.12550282E-05  9.46801298E-05  1.32533173E-04  1.02060336E-04  9.28956476E-05  1.04578451E-04  1.26763568E-04  1.12529804E-04  9.99339104E-05  7.32084549E-05  1.03080915E-04
    9.54513899E-05  1.13587984E-04  9.25128281E-05  1.07886151E-04  1.15528481E-04  1.27869304E-04  1.11606764E-04  8.56381458E-05  7.34872358E-05  9.18371229E-05  7.57746768E-05  9.02910023E-05  6.53566113E-05  6.98336272E-05  6.73920653E-05  5.73550607E-05  6.12768291E-05  4.70803914E-05  7.93131397E-05  8.29059999E-05
    7.68881614E-05  8.64304581E-05  4.66237610E-05  6.05828443E-05  4.95884244E-05  6.02536420E-05  5.92024529E-05  5.90531960E-05  4.66402606E-05  3.97743426E-05  1.85625168E-05  2.42932562E-05  2.18051531E-05  2.46872594E-05  4.57556967E-05  4.49658873E-05  3.20252033E-05  3.37111123E-05  4.09477423E-05  5.50972893E-05
    5.99228793E-05  8.72646298E-05  5.43051096E-05  4.95997896E-05  4.72147278E-05  8.37488206E-05  5.83901286E-05  6.69737818E-05  6.57127028E-05  4.23793471E-05  4.71223032E-05  5.85666878E-05  4.19257302E-05  4.57189997E-05  4.08029394E-05  6.16328902E-05  6.20964171E-05  5.13345582E-05  5.12866433E-05  5.90570015E-05
    5.23137729E-05  7.18962649E-05  6.42543840E-05  7.89565728E-05  8.04959412E-05  8.98368813E-05  7.64400527E-05  7.34966802E-05  9.73543718E-05  7.61135434E-05  9.06157543E-05  7.69521348E-05  8.95298042E-05  8.76690039E-05  9.96000063E-05  8.98985433E-05  9.50781625E-05  6.15293634E-05  5.64232085E-05  4.79309403E-05
    5.52392999E-05  4.86529320E-05  5.24162303E-05  4.43299255E-05  4.02163821E-05  4.73973399E-05  6.13610902E-05  2.60850889E-05  2.94795683E-05  3.05416973E-05  4.08343674E-05  5.47979136E-05  5.72629623E-05  4.26889843E-05  3.27617996E-05  2.75822769E-05  3.44303597E-05  2.92832402E-05  4.59072627E-05  4.90959925E-05
    3.77218528E-05  3.64790949E-05  5.63387575E-05  5.36924502E-05  5.93490605E-05  5.36414760E-05  4.97074998E-05  6.54339989E-05  6.52629499E-05  6.52732489E-05  6.11033780E-05  6.89122462E-05  7.69383946E-05  8.29979054E-05  8.52232302E-05  8.93753907E-05  1.01577863E-04  8.98247392E-05  1.06754092E-04  7.41672400E-05
    8.90227257E-05  6.81111548E-05  8.26144099E-05  8.58866154E-05  1.09884379E-04  9.92293522E-05  9.31137298E-05  9.58183412E-05  9.99131391E-05  1.00042116E-04  1.19676112E-04  1.05458942E-04  1.16675484E-04  1.08067895E-04  7.60263036E-05  5.32382153E-05  6.24070219E-05  7.61853232E-05  5.65747957E-05  4.65851706E-05
    5.49750860E-05  7.58459472E-05  5.23729056E-05  6.08221612E-05  6.81937757E-05  5.15323618E-05  3.49850435E-05  1.89980845E-05  3.44429012E-05  3.50314300E-05  4.93507158E-05  4.97349603E-05  4.10288637E-05  5.63498559E-05  6.30985603E-05  5.40164083E-05  1.03728732E-04  1.03185911E-04  8.15846275E-05  7.26040817E-05
    5.81502273E-05  2.66594369E-05  5.42567979E-05  6.12320525E-05  7.54355594E-05  7.24379312E-05  6.74762138E-05  5.44881868E-05  1.04662853E-04  7.23907019E-05  7.95592402E-05  5.45003806E-05  6.86692969E-05  7.88632724E-05  6.24560086E-05  4.72519816E-05  6.63710516E-05  4.43949605E-05  4.61150044E-05  9.53091007E-05
    7.86793583E-05  7.27914749E-05  7.21354677E-05  7.42742087E-05  6.68980136E-05  7.11854444E-05  6.43197384E-05  6.25678117E-05  6.07142449E-05  5.03375370E-05  5.55718885E-05  6.74773840E-05  6.79735148E-05  5.66381611E-05  6.39152231E-05  8.01752204E-05  6.23468197E-05  7.78472026E-05  7.69426959E-05  5.57231216E-05