# File generated by Flopy version 3.3.3 on 11/03/2021 at 14:31:28.
BEGIN options
  BOUNDNAMES
  SAVE_FLOWS
END options

BEGIN dimensions
  MAXBOUND  2
END dimensions

BEGIN period  1
  1 5352      -0.02777778  w1
  1 8077      -0.00555556  w2
END period  1

