# File generated by Flopy version 3.3.3 on 11/04/2021 at 17:00:52.
BEGIN options
  BOUNDNAMES
  SAVE_FLOWS
END options

BEGIN dimensions
  MAXBOUND  65
END dimensions

BEGIN period  1
  1 1968      26.00000000       0.00500000  d1
  1 3072      26.00000000       0.00500000  d1
  1 1974      26.00000000       0.00500000  d1
  1 3070      26.00000000       0.00500000  d1
  1 3075      26.00000000       0.00500000  d1
  1 1977      26.00000000       0.00500000  d1
  1 1976      26.00000000       0.00500000  d1
  1 2942      26.00000000       0.00500000  d1
  1 3073      26.00000000       0.00500000  d1
  1 1979      26.00000000       0.00500000  d1
  1 2104      26.00000000       0.00500000  d1
  1 2940      26.00000000       0.00500000  d1
  1 2945      26.00000000       0.00500000  d1
  1 2107      26.00000000       0.00500000  d1
  1 2106      26.00000000       0.00500000  d1
  1 2934      26.00000000       0.00500000  d1
  1 2943      26.00000000       0.00500000  d1
  1 2109      26.00000000       0.00500000  d1
  1 2112      26.00000000       0.00500000  d1
  1 2932      26.00000000       0.00500000  d1
  1 2937      26.00000000       0.00500000  d1
  1 2115      26.00000000       0.00500000  d1
  1 2114      26.00000000       0.00500000  d1
  1 2804      26.00000000       0.00500000  d1
  1 2935      26.00000000       0.00500000  d1
  1 2117      26.00000000       0.00500000  d1
  1 2242      26.00000000       0.00500000  d1
  1 2802      26.00000000       0.00500000  d1
  1 2807      26.00000000       0.00500000  d1
  1 2245      26.00000000       0.00500000  d1
  1 2244      26.00000000       0.00500000  d1
  1 2796      26.00000000       0.00500000  d1
  1 2805      26.00000000       0.00500000  d1
  1 2247      26.00000000       0.00500000  d1
  1 2250      26.00000000       0.00500000  d1
  1 2794      26.00000000       0.00500000  d1
  1 2799      26.00000000       0.00500000  d1
  1 2253      26.00000000       0.00500000  d1
  1 2252      26.00000000       0.00500000  d1
  1 2666      26.00000000       0.00500000  d1
  1 2797      26.00000000       0.00500000  d1
  1 2255      26.00000000       0.00500000  d1
  1 2380      26.00000000       0.00500000  d1
  1 2664      26.00000000       0.00500000  d1
  1 2669      26.00000000       0.00500000  d1
  1 2383      26.00000000       0.00500000  d1
  1 2382      26.00000000       0.00500000  d1
  1 2658      26.00000000       0.00500000  d1
  1 2667      26.00000000       0.00500000  d1
  1 2385      26.00000000       0.00500000  d1
  1 2388      26.00000000       0.00500000  d1
  1 2656      26.00000000       0.00500000  d1
  1 2661      26.00000000       0.00500000  d1
  1 2391      26.00000000       0.00500000  d1
  1 2390      26.00000000       0.00500000  d1
  1 2528      26.00000000       0.00500000  d1
  1 2659      26.00000000       0.00500000  d1
  1 2393      26.00000000       0.00500000  d1
  1 2518      26.00000000       0.00500000  d1
  1 2526      26.00000000       0.00500000  d1
  1 2531      26.00000000       0.00500000  d1
  1 2521      26.00000000       0.00500000  d1
  1 2520      26.00000000       0.00500000  d1
  1 2529      26.00000000       0.00500000  d1
  1 2523      26.00000000       0.00500000  d1
END period  1

