# File generated by Flopy version 3.3.3 on 11/04/2021 at 17:00:51.
BEGIN options
END options

