# File generated by Flopy version 3.3.3 on 11/03/2021 at 14:31:28.
BEGIN griddata
  strt
    CONSTANT      30.00000000
END griddata

