# File generated by Flopy version 3.3.3 on 11/04/2021 at 17:00:52.
BEGIN options
  BUDGET  FILEOUT  syn_model.cbc
  HEAD  FILEOUT  syn_model.hds
END options

BEGIN period  1
  SAVE  HEAD  LAST
  SAVE  BUDGET  LAST
  PRINT  HEAD  LAST
END period  1

