# File generated by Flopy version 3.3.3 on 11/09/2021 at 09:44:55.
BEGIN options
  BUDGET  FILEOUT  syn_model.cbc
  HEAD  FILEOUT  syn_model.hds
END options

BEGIN period  1
  SAVE  HEAD  LAST
  SAVE  BUDGET  LAST
  PRINT  HEAD  LAST
END period  1

