# File generated by Flopy version 3.3.3 on 11/04/2021 at 17:00:52.
BEGIN options
  SAVE_FLOWS
  SAVE_SPECIFIC_DISCHARGE
END options

BEGIN griddata
  icelltype
    CONSTANT  0
  k
    INTERNAL  FACTOR  1.0
    3.19852984E-05  3.15490731E-05  2.28725489E-05  2.47729422E-05  2.58323728E-05  1.51346539E-05  3.43423427E-05  2.79315182E-05  1.95119362E-05  2.20842767E-05  2.69688080E-05  3.88759147E-05  4.28657429E-05  3.92465649E-05  3.74913218E-05  3.63048610E-05  4.81731869E-05  5.44382255E-05  7.22336718E-05  7.81527514E-05
    1.01391024E-04  7.76131628E-05  4.42727209E-05  3.77172904E-05  6.19546214E-05  9.44460647E-05  1.14759898E-04  2.27264859E-04  1.69594180E-04  8.73406194E-05  1.34225248E-04  1.39025835E-04  8.59397118E-05  1.06012818E-04  8.98712480E-05  6.71988687E-05  9.71116729E-05  9.71116729E-05  9.71116729E-05  9.71116729E-05
    1.14690969E-04  1.14690969E-04  1.14690969E-04  1.14690969E-04  1.14690969E-04  1.14690969E-04  1.14690969E-04  1.14690969E-04  1.14690969E-04  1.14690969E-04  1.14690969E-04  1.14690969E-04  1.14690969E-04  1.14690969E-04  1.14690969E-04  1.14690969E-04  1.54745779E-04  1.54745779E-04  1.54745779E-04  1.54745779E-04
    2.10732363E-04  4.40963224E-04  2.81107357E-04  1.70410779E-04  1.61410385E-04  2.25393227E-04  1.86359133E-04  2.18817454E-04  2.18510829E-04  1.60946158E-04  8.66172415E-05  7.93244514E-05  8.15920147E-05  1.21417754E-04  9.73524001E-05  1.43929291E-04  1.26344532E-04  1.54930007E-04  1.09189878E-04  1.11972407E-04
    6.94385452E-05  1.00692999E-04  8.00075680E-05  6.84547232E-05  6.72637260E-05  7.81534937E-05  6.90838270E-05  7.26286032E-05  1.02390294E-04  9.90019929E-05  7.52418400E-05  1.25816580E-04  8.56177390E-05  6.83474088E-05  5.83588920E-05  5.24445751E-05  3.19852984E-05  3.15490731E-05  2.28725489E-05  2.47729422E-05
    2.58323728E-05  1.51346539E-05  3.43423427E-05  2.79315182E-05  1.95119362E-05  2.20842767E-05  2.69688080E-05  3.88759147E-05  4.28657429E-05  3.92465649E-05  3.74913218E-05  3.63048610E-05  4.81731869E-05  5.44382255E-05  7.22336718E-05  7.81527514E-05  1.01391024E-04  7.76131628E-05  4.42727209E-05  3.77172904E-05
    6.19546214E-05  9.44460647E-05  1.14759898E-04  2.27264859E-04  1.69594180E-04  8.73406194E-05  1.34225248E-04  1.39025835E-04  8.59397118E-05  1.06012818E-04  8.98712480E-05  6.71988687E-05  9.71116729E-05  9.71116729E-05  9.71116729E-05  9.71116729E-05  1.14690969E-04  1.14690969E-04  1.14690969E-04  1.14690969E-04
    1.14690969E-04  1.14690969E-04  1.14690969E-04  1.14690969E-04  1.14690969E-04  1.14690969E-04  1.14690969E-04  1.14690969E-04  1.14690969E-04  1.14690969E-04  1.14690969E-04  1.14690969E-04  1.54745779E-04  1.54745779E-04  1.54745779E-04  1.54745779E-04  2.10732363E-04  4.40963224E-04  2.81107357E-04  1.70410779E-04
    1.61410385E-04  2.25393227E-04  1.86359133E-04  2.18817454E-04  2.18510829E-04  1.60946158E-04  8.66172415E-05  7.93244514E-05  8.15920147E-05  1.21417754E-04  9.73524001E-05  1.43929291E-04  1.26344532E-04  1.54930007E-04  1.09189878E-04  1.11972407E-04  6.94385452E-05  1.00692999E-04  8.00075680E-05  6.84547232E-05
    6.72637260E-05  7.81534937E-05  6.90838270E-05  7.26286032E-05  1.02390294E-04  9.90019929E-05  7.52418400E-05  1.25816580E-04  8.56177390E-05  6.83474088E-05  5.83588920E-05  5.24445751E-05  3.19852984E-05  3.15490731E-05  2.28725489E-05  2.47729422E-05  2.58323728E-05  1.51346539E-05  3.43423427E-05  2.79315182E-05
    1.95119362E-05  2.20842767E-05  2.69688080E-05  3.88759147E-05  4.28657429E-05  3.92465649E-05  3.74913218E-05  3.63048610E-05  4.81731869E-05  5.44382255E-05  7.22336718E-05  7.81527514E-05  1.01391024E-04  7.76131628E-05  4.42727209E-05  3.77172904E-05  6.19546214E-05  9.44460647E-05  1.14759898E-04  2.27264859E-04
    1.69594180E-04  8.73406194E-05  1.34225248E-04  1.39025835E-04  8.59397118E-05  1.06012818E-04  8.98712480E-05  6.71988687E-05  9.71116729E-05  9.71116729E-05  9.71116729E-05  9.71116729E-05  1.14690969E-04  1.14690969E-04  1.14690969E-04  1.14690969E-04  1.14690969E-04  1.14690969E-04  1.14690969E-04  1.14690969E-04
    1.14690969E-04  1.14690969E-04  1.14690969E-04  1.14690969E-04  1.14690969E-04  1.14690969E-04  1.14690969E-04  1.14690969E-04  1.54745779E-04  1.54745779E-04  1.54745779E-04  1.54745779E-04  2.10732363E-04  4.40963224E-04  2.81107357E-04  1.70410779E-04  1.61410385E-04  2.25393227E-04  1.86359133E-04  2.18817454E-04
    2.18510829E-04  1.60946158E-04  8.66172415E-05  7.93244514E-05  8.15920147E-05  1.21417754E-04  9.73524001E-05  1.43929291E-04  1.26344532E-04  1.54930007E-04  1.09189878E-04  1.11972407E-04  6.94385452E-05  1.00692999E-04  8.00075680E-05  6.84547232E-05  6.72637260E-05  7.81534937E-05  6.90838270E-05  7.26286032E-05
    1.02390294E-04  9.90019929E-05  7.52418400E-05  1.25816580E-04  8.56177390E-05  6.83474088E-05  5.83588920E-05  5.24445751E-05  3.19852984E-05  3.15490731E-05  2.28725489E-05  2.47729422E-05  2.58323728E-05  1.51346539E-05  3.43423427E-05  2.79315182E-05  1.95119362E-05  2.20842767E-05  2.69688080E-05  3.88759147E-05
    4.28657429E-05  3.92465649E-05  3.74913218E-05  3.63048610E-05  4.81731869E-05  5.44382255E-05  7.22336718E-05  7.81527514E-05  1.01391024E-04  7.76131628E-05  4.42727209E-05  3.77172904E-05  6.19546214E-05  9.44460647E-05  1.14759898E-04  2.27264859E-04  1.69594180E-04  8.73406194E-05  1.34225248E-04  1.39025835E-04
    8.59397118E-05  1.06012818E-04  8.98712480E-05  6.71988687E-05  9.71116729E-05  9.71116729E-05  9.71116729E-05  9.71116729E-05  1.14690969E-04  1.14690969E-04  1.14690969E-04  1.14690969E-04  1.14690969E-04  1.14690969E-04  1.14690969E-04  1.14690969E-04  1.14690969E-04  1.14690969E-04  1.14690969E-04  1.14690969E-04
    1.14690969E-04  1.14690969E-04  1.14690969E-04  1.14690969E-04  1.54745779E-04  1.54745779E-04  1.54745779E-04  1.54745779E-04  2.10732363E-04  4.40963224E-04  2.81107357E-04  1.70410779E-04  1.61410385E-04  2.25393227E-04  1.86359133E-04  2.18817454E-04  2.18510829E-04  1.60946158E-04  8.66172415E-05  7.93244514E-05
    8.15920147E-05  1.21417754E-04  9.73524001E-05  1.43929291E-04  1.26344532E-04  1.54930007E-04  1.09189878E-04  1.11972407E-04  6.94385452E-05  1.00692999E-04  8.00075680E-05  6.84547232E-05  6.72637260E-05  7.81534937E-05  6.90838270E-05  7.26286032E-05  1.02390294E-04  9.90019929E-05  7.52418400E-05  1.25816580E-04
    8.56177390E-05  6.83474088E-05  5.83588920E-05  5.24445751E-05  3.19852984E-05  3.15490731E-05  2.28725489E-05  2.47729422E-05  2.58323728E-05  1.51346539E-05  3.43423427E-05  2.79315182E-05  1.95119362E-05  2.20842767E-05  2.69688080E-05  3.88759147E-05  4.28657429E-05  3.92465649E-05  3.74913218E-05  3.63048610E-05
    4.81731869E-05  5.44382255E-05  7.22336718E-05  7.81527514E-05  1.01391024E-04  7.76131628E-05  4.42727209E-05  3.77172904E-05  6.19546214E-05  9.44460647E-05  1.14759898E-04  2.27264859E-04  1.69594180E-04  8.73406194E-05  1.34225248E-04  1.39025835E-04  8.59397118E-05  1.06012818E-04  8.98712480E-05  6.71988687E-05
    9.71116729E-05  9.71116729E-05  9.71116729E-05  9.71116729E-05  1.14690969E-04  1.14690969E-04  1.14690969E-04  1.14690969E-04  1.14690969E-04  1.14690969E-04  1.14690969E-04  1.14690969E-04  1.14690969E-04  1.14690969E-04  1.14690969E-04  1.14690969E-04  1.14690969E-04  1.14690969E-04  1.14690969E-04  1.14690969E-04
    1.54745779E-04  1.54745779E-04  1.54745779E-04  1.54745779E-04  2.10732363E-04  4.40963224E-04  2.81107357E-04  1.70410779E-04  1.61410385E-04  2.25393227E-04  1.86359133E-04  2.18817454E-04  2.18510829E-04  1.60946158E-04  8.66172415E-05  7.93244514E-05  8.15920147E-05  1.21417754E-04  9.73524001E-05  1.43929291E-04
    1.26344532E-04  1.54930007E-04  1.09189878E-04  1.11972407E-04  6.94385452E-05  1.00692999E-04  8.00075680E-05  6.84547232E-05  6.72637260E-05  7.81534937E-05  6.90838270E-05  7.26286032E-05  1.02390294E-04  9.90019929E-05  7.52418400E-05  1.25816580E-04  8.56177390E-05  6.83474088E-05  5.83588920E-05  5.24445751E-05
    3.19852984E-05  3.15490731E-05  2.28725489E-05  2.47729422E-05  2.58323728E-05  1.51346539E-05  3.43423427E-05  2.79315182E-05  1.95119362E-05  2.20842767E-05  2.69688080E-05  3.88759147E-05  4.28657429E-05  3.92465649E-05  3.74913218E-05  3.63048610E-05  4.81731869E-05  5.44382255E-05  7.22336718E-05  7.81527514E-05
    1.01391024E-04  7.76131628E-05  4.42727209E-05  3.77172904E-05  6.19546214E-05  9.44460647E-05  1.14759898E-04  2.27264859E-04  1.69594180E-04  8.73406194E-05  1.34225248E-04  1.39025835E-04  8.59397118E-05  1.06012818E-04  8.98712480E-05  6.71988687E-05  9.71116729E-05  9.71116729E-05  9.71116729E-05  9.71116729E-05
    1.14690969E-04  1.14690969E-04  1.14690969E-04  1.14690969E-04  1.14690969E-04  1.14690969E-04  1.14690969E-04  1.14690969E-04  1.14690969E-04  1.14690969E-04  1.14690969E-04  1.14690969E-04  1.14690969E-04  1.14690969E-04  1.14690969E-04  1.14690969E-04  1.54745779E-04  1.54745779E-04  1.54745779E-04  1.54745779E-04
    2.10732363E-04  4.40963224E-04  2.81107357E-04  1.70410779E-04  1.61410385E-04  2.25393227E-04  1.86359133E-04  2.18817454E-04  2.18510829E-04  1.60946158E-04  8.66172415E-05  7.93244514E-05  8.15920147E-05  1.21417754E-04  9.73524001E-05  1.43929291E-04  1.26344532E-04  1.54930007E-04  1.09189878E-04  1.11972407E-04
    6.94385452E-05  1.00692999E-04  8.00075680E-05  6.84547232E-05  6.72637260E-05  7.81534937E-05  6.90838270E-05  7.26286032E-05  1.02390294E-04  9.90019929E-05  7.52418400E-05  1.25816580E-04  8.56177390E-05  6.83474088E-05  5.83588920E-05  5.24445751E-05  3.19852984E-05  3.15490731E-05  2.28725489E-05  2.47729422E-05
    2.58323728E-05  1.51346539E-05  3.43423427E-05  2.79315182E-05  1.95119362E-05  2.20842767E-05  2.69688080E-05  3.88759147E-05  4.28657429E-05  3.92465649E-05  3.74913218E-05  3.63048610E-05  4.81731869E-05  5.44382255E-05  7.22336718E-05  7.81527514E-05  1.01391024E-04  7.76131628E-05  4.42727209E-05  3.77172904E-05
    6.19546214E-05  9.44460647E-05  1.14759898E-04  2.27264859E-04  1.69594180E-04  8.73406194E-05  1.34225248E-04  1.39025835E-04  8.59397118E-05  1.06012818E-04  8.98712480E-05  6.71988687E-05  9.71116729E-05  9.71116729E-05  9.71116729E-05  9.71116729E-05  1.14690969E-04  1.14690969E-04  1.14690969E-04  1.14690969E-04
    1.14690969E-04  1.14690969E-04  1.14690969E-04  1.14690969E-04  1.14690969E-04  1.14690969E-04  1.14690969E-04  1.14690969E-04  1.14690969E-04  1.14690969E-04  1.14690969E-04  1.14690969E-04  1.54745779E-04  1.54745779E-04  1.54745779E-04  1.54745779E-04  2.10732363E-04  4.40963224E-04  2.81107357E-04  1.70410779E-04
    1.61410385E-04  2.25393227E-04  1.86359133E-04  2.18817454E-04  2.18510829E-04  1.60946158E-04  8.66172415E-05  7.93244514E-05  8.15920147E-05  1.21417754E-04  9.73524001E-05  1.43929291E-04  1.26344532E-04  1.54930007E-04  1.09189878E-04  1.11972407E-04  6.94385452E-05  1.00692999E-04  8.00075680E-05  6.84547232E-05
    6.72637260E-05  7.81534937E-05  6.90838270E-05  7.26286032E-05  1.02390294E-04  9.90019929E-05  7.52418400E-05  1.25816580E-04  8.56177390E-05  6.83474088E-05  5.83588920E-05  5.24445751E-05  3.19852984E-05  3.15490731E-05  2.28725489E-05  2.47729422E-05  2.58323728E-05  1.51346539E-05  3.43423427E-05  2.79315182E-05
    1.95119362E-05  2.20842767E-05  2.69688080E-05  3.88759147E-05  4.28657429E-05  3.92465649E-05  3.74913218E-05  3.63048610E-05  4.81731869E-05  5.44382255E-05  7.22336718E-05  7.81527514E-05  1.01391024E-04  7.76131628E-05  4.42727209E-05  3.77172904E-05  6.19546214E-05  9.44460647E-05  1.14759898E-04  2.27264859E-04
    1.69594180E-04  8.73406194E-05  1.34225248E-04  1.39025835E-04  8.59397118E-05  1.06012818E-04  8.98712480E-05  6.71988687E-05  9.71116729E-05  9.71116729E-05  9.71116729E-05  9.71116729E-05  1.14690969E-04  1.14690969E-04  1.14690969E-04  1.14690969E-04  1.14690969E-04  1.14690969E-04  1.14690969E-04  1.14690969E-04
    1.14690969E-04  1.14690969E-04  1.14690969E-04  1.14690969E-04  1.14690969E-04  1.14690969E-04  1.14690969E-04  1.14690969E-04  1.54745779E-04  1.54745779E-04  1.54745779E-04  1.54745779E-04  2.10732363E-04  4.40963224E-04  2.81107357E-04  1.70410779E-04  1.61410385E-04  2.25393227E-04  1.86359133E-04  2.18817454E-04
    2.18510829E-04  1.60946158E-04  8.66172415E-05  7.93244514E-05  8.15920147E-05  1.21417754E-04  9.73524001E-05  1.43929291E-04  1.26344532E-04  1.54930007E-04  1.09189878E-04  1.11972407E-04  6.94385452E-05  1.00692999E-04  8.00075680E-05  6.84547232E-05  6.72637260E-05  7.81534937E-05  6.90838270E-05  7.26286032E-05
    1.02390294E-04  9.90019929E-05  7.52418400E-05  1.25816580E-04  8.56177390E-05  6.83474088E-05  5.83588920E-05  5.24445751E-05  3.19852984E-05  3.15490731E-05  2.28725489E-05  2.47729422E-05  2.58323728E-05  1.51346539E-05  3.43423427E-05  2.79315182E-05  1.95119362E-05  2.20842767E-05  2.69688080E-05  3.88759147E-05
    4.28657429E-05  3.92465649E-05  3.74913218E-05  3.63048610E-05  4.81731869E-05  5.44382255E-05  7.22336718E-05  7.81527514E-05  1.01391024E-04  7.76131628E-05  4.42727209E-05  3.77172904E-05  6.19546214E-05  9.44460647E-05  1.14759898E-04  2.27264859E-04  1.69594180E-04  8.73406194E-05  1.34225248E-04  1.39025835E-04
    8.59397118E-05  1.06012818E-04  8.98712480E-05  6.71988687E-05  9.71116729E-05  9.71116729E-05  9.71116729E-05  9.71116729E-05  1.14690969E-04  1.14690969E-04  1.14690969E-04  1.14690969E-04  1.14690969E-04  1.14690969E-04  1.14690969E-04  1.14690969E-04  1.14690969E-04  1.14690969E-04  1.14690969E-04  1.14690969E-04
    1.14690969E-04  1.14690969E-04  1.14690969E-04  1.14690969E-04  1.54745779E-04  1.54745779E-04  1.54745779E-04  1.54745779E-04  2.10732363E-04  4.40963224E-04  2.81107357E-04  1.70410779E-04  1.61410385E-04  2.25393227E-04  1.86359133E-04  2.18817454E-04  2.18510829E-04  1.60946158E-04  8.66172415E-05  7.93244514E-05
    8.15920147E-05  1.21417754E-04  9.73524001E-05  1.43929291E-04  1.26344532E-04  1.54930007E-04  1.09189878E-04  1.11972407E-04  6.94385452E-05  1.00692999E-04  8.00075680E-05  6.84547232E-05  6.72637260E-05  7.81534937E-05  6.90838270E-05  7.26286032E-05  1.02390294E-04  9.90019929E-05  7.52418400E-05  1.25816580E-04
    8.56177390E-05  6.83474088E-05  5.83588920E-05  5.24445751E-05  3.19852984E-05  3.15490731E-05  2.28725489E-05  2.47729422E-05  2.58323728E-05  1.51346539E-05  3.43423427E-05  2.79315182E-05  1.95119362E-05  2.20842767E-05  2.69688080E-05  3.88759147E-05  4.28657429E-05  3.92465649E-05  3.74913218E-05  3.63048610E-05
    4.81731869E-05  5.44382255E-05  7.22336718E-05  7.81527514E-05  1.01391024E-04  7.76131628E-05  4.42727209E-05  3.77172904E-05  6.19546214E-05  9.44460647E-05  1.14759898E-04  2.27264859E-04  1.69594180E-04  8.73406194E-05  1.34225248E-04  1.39025835E-04  8.59397118E-05  1.06012818E-04  8.98712480E-05  6.71988687E-05
    9.71116729E-05  9.71116729E-05  9.71116729E-05  9.71116729E-05  1.14690969E-04  1.14690969E-04  1.14690969E-04  1.14690969E-04  1.14690969E-04  1.14690969E-04  1.14690969E-04  1.14690969E-04  1.14690969E-04  1.14690969E-04  1.14690969E-04  1.14690969E-04  1.14690969E-04  1.14690969E-04  1.14690969E-04  1.14690969E-04
    1.54745779E-04  1.54745779E-04  1.54745779E-04  1.54745779E-04  2.10732363E-04  4.40963224E-04  2.81107357E-04  1.70410779E-04  1.61410385E-04  2.25393227E-04  1.86359133E-04  2.18817454E-04  2.18510829E-04  1.60946158E-04  8.66172415E-05  7.93244514E-05  8.15920147E-05  1.21417754E-04  9.73524001E-05  1.43929291E-04
    1.26344532E-04  1.54930007E-04  1.09189878E-04  1.11972407E-04  6.94385452E-05  1.00692999E-04  8.00075680E-05  6.84547232E-05  6.72637260E-05  7.81534937E-05  6.90838270E-05  7.26286032E-05  1.02390294E-04  9.90019929E-05  7.52418400E-05  1.25816580E-04  8.56177390E-05  6.83474088E-05  5.83588920E-05  5.24445751E-05
    5.24445751E-05  5.24445751E-05  5.24445751E-05  5.24445751E-05  5.24445751E-05  5.24445751E-05  3.19852984E-05  3.15490731E-05  2.28725489E-05  2.47729422E-05  2.58323728E-05  1.51346539E-05  3.43423427E-05  2.79315182E-05  1.95119362E-05  2.20842767E-05  2.69688080E-05  3.88759147E-05  4.28657429E-05  3.92465649E-05
    3.74913218E-05  3.63048610E-05  4.81731869E-05  5.44382255E-05  7.22336718E-05  7.81527514E-05  1.01391024E-04  7.76131628E-05  4.42727209E-05  3.77172904E-05  6.19546214E-05  9.44460647E-05  1.14759898E-04  2.27264859E-04  1.69594180E-04  8.73406194E-05  1.34225248E-04  1.39025835E-04  8.59397118E-05  1.06012818E-04
    8.98712480E-05  6.71988687E-05  9.71116729E-05  9.71116729E-05  9.71116729E-05  9.71116729E-05  1.14690969E-04  1.14690969E-04  1.14690969E-04  1.14690969E-04  1.14690969E-04  1.14690969E-04  1.14690969E-04  1.14690969E-04  1.14690969E-04  1.14690969E-04  1.14690969E-04  1.14690969E-04  1.14690969E-04  1.14690969E-04
    1.14690969E-04  1.14690969E-04  1.54745779E-04  1.54745779E-04  1.54745779E-04  1.54745779E-04  2.10732363E-04  4.40963224E-04  2.81107357E-04  1.70410779E-04  1.61410385E-04  2.25393227E-04  1.86359133E-04  2.18817454E-04  2.18510829E-04  1.60946158E-04  8.66172415E-05  7.93244514E-05  8.15920147E-05  1.21417754E-04
    9.73524001E-05  1.43929291E-04  1.26344532E-04  1.54930007E-04  1.09189878E-04  1.11972407E-04  6.94385452E-05  1.00692999E-04  8.00075680E-05  6.84547232E-05  6.72637260E-05  7.81534937E-05  6.90838270E-05  7.26286032E-05  1.02390294E-04  9.90019929E-05  7.52418400E-05  1.25816580E-04  8.56177390E-05  6.83474088E-05
    5.83588920E-05  5.83588920E-05  5.83588920E-05  5.83588920E-05  5.24445751E-05  5.24445751E-05  5.24445751E-05  5.24445751E-05  5.24445751E-05  5.24445751E-05  5.24445751E-05  5.24445751E-05  5.24445751E-05  5.24445751E-05  5.24445751E-05  5.24445751E-05  5.24445751E-05  3.19852984E-05  3.15490731E-05  2.28725489E-05
    2.47729422E-05  2.58323728E-05  1.51346539E-05  3.43423427E-05  2.79315182E-05  1.95119362E-05  2.20842767E-05  2.69688080E-05  3.88759147E-05  4.28657429E-05  3.92465649E-05  3.74913218E-05  3.63048610E-05  4.81731869E-05  5.44382255E-05  7.22336718E-05  7.81527514E-05  1.01391024E-04  7.76131628E-05  4.42727209E-05
    3.77172904E-05  6.19546214E-05  9.44460647E-05  1.14759898E-04  2.27264859E-04  1.69594180E-04  8.73406194E-05  1.34225248E-04  1.39025835E-04  8.59397118E-05  1.06012818E-04  8.98712480E-05  6.71988687E-05  9.71116729E-05  9.71116729E-05  9.71116729E-05  9.71116729E-05  1.14690969E-04  1.14690969E-04  1.14690969E-04
    1.14690969E-04  1.14690969E-04  1.14690969E-04  1.14690969E-04  1.14690969E-04  1.14690969E-04  1.14690969E-04  1.14690969E-04  1.14690969E-04  1.14690969E-04  1.14690969E-04  1.14690969E-04  1.14690969E-04  1.54745779E-04  1.54745779E-04  1.54745779E-04  1.54745779E-04  2.10732363E-04  4.40963224E-04  2.81107357E-04
    1.70410779E-04  1.61410385E-04  2.25393227E-04  1.86359133E-04  2.18817454E-04  2.18510829E-04  1.60946158E-04  8.66172415E-05  7.93244514E-05  8.15920147E-05  1.21417754E-04  9.73524001E-05  1.43929291E-04  1.26344532E-04  1.54930007E-04  1.09189878E-04  1.11972407E-04  6.94385452E-05  1.00692999E-04  8.00075680E-05
    6.84547232E-05  6.72637260E-05  7.81534937E-05  6.90838270E-05  7.26286032E-05  1.02390294E-04  9.90019929E-05  7.52418400E-05  1.25816580E-04  8.56177390E-05  6.83474088E-05  6.83474088E-05  6.83474088E-05  6.83474088E-05  5.83588920E-05  5.83588920E-05  5.83588920E-05  5.83588920E-05  5.83588920E-05  5.83588920E-05
    5.83588920E-05  5.83588920E-05  5.83588920E-05  5.83588920E-05  5.83588920E-05  5.83588920E-05  5.83588920E-05  5.24445751E-05  5.24445751E-05  5.24445751E-05  5.24445751E-05  5.24445751E-05  5.24445751E-05  5.24445751E-05  3.19852984E-05  3.15490731E-05  2.28725489E-05  2.47729422E-05  2.58323728E-05  1.51346539E-05
    3.43423427E-05  2.79315182E-05  1.95119362E-05  2.20842767E-05  2.69688080E-05  3.88759147E-05  4.28657429E-05  3.92465649E-05  3.74913218E-05  3.63048610E-05  4.81731869E-05  5.44382255E-05  7.22336718E-05  7.81527514E-05  1.01391024E-04  7.76131628E-05  4.42727209E-05  3.77172904E-05  6.19546214E-05  9.44460647E-05
    1.14759898E-04  2.27264859E-04  1.69594180E-04  8.73406194E-05  1.34225248E-04  1.39025835E-04  8.59397118E-05  1.06012818E-04  8.98712480E-05  6.71988687E-05  9.71116729E-05  9.71116729E-05  9.71116729E-05  9.71116729E-05  1.14690969E-04  1.14690969E-04  1.14690969E-04  1.14690969E-04  1.14690969E-04  1.14690969E-04
    1.14690969E-04  1.14690969E-04  1.14690969E-04  1.14690969E-04  1.14690969E-04  1.14690969E-04  1.14690969E-04  1.14690969E-04  1.14690969E-04  1.14690969E-04  1.54745779E-04  1.54745779E-04  1.54745779E-04  1.54745779E-04  2.10732363E-04  4.40963224E-04  2.81107357E-04  1.70410779E-04  1.61410385E-04  2.25393227E-04
    1.86359133E-04  2.18817454E-04  2.18510829E-04  1.60946158E-04  8.66172415E-05  7.93244514E-05  8.15920147E-05  1.21417754E-04  9.73524001E-05  1.43929291E-04  1.26344532E-04  1.54930007E-04  1.09189878E-04  1.11972407E-04  6.94385452E-05  1.00692999E-04  8.00075680E-05  6.84547232E-05  6.72637260E-05  7.81534937E-05
    6.90838270E-05  7.26286032E-05  1.02390294E-04  9.90019929E-05  7.52418400E-05  1.25816580E-04  8.56177390E-05  8.56177390E-05  8.56177390E-05  8.56177390E-05  6.83474088E-05  6.83474088E-05  6.83474088E-05  6.83474088E-05  6.83474088E-05  6.83474088E-05  6.83474088E-05  6.83474088E-05  6.83474088E-05  6.83474088E-05
    6.83474088E-05  6.83474088E-05  6.83474088E-05  5.83588920E-05  5.83588920E-05  5.83588920E-05  5.83588920E-05  5.83588920E-05  5.83588920E-05  5.83588920E-05  5.24445751E-05  3.19852984E-05  3.15490731E-05  2.28725489E-05  2.47729422E-05  2.58323728E-05  1.51346539E-05  3.43423427E-05  2.79315182E-05  1.95119362E-05
    2.20842767E-05  2.69688080E-05  3.88759147E-05  4.28657429E-05  3.92465649E-05  3.74913218E-05  3.63048610E-05  4.81731869E-05  5.44382255E-05  7.22336718E-05  7.81527514E-05  1.01391024E-04  7.76131628E-05  4.42727209E-05  3.77172904E-05  6.19546214E-05  9.44460647E-05  1.14759898E-04  2.27264859E-04  1.69594180E-04
    8.73406194E-05  1.34225248E-04  1.39025835E-04  8.59397118E-05  1.06012818E-04  8.98712480E-05  6.71988687E-05  9.71116729E-05  9.71116729E-05  9.71116729E-05  9.71116729E-05  1.14690969E-04  1.14690969E-04  1.14690969E-04  1.14690969E-04  1.14690969E-04  1.14690969E-04  1.14690969E-04  1.14690969E-04  1.14690969E-04
    1.14690969E-04  1.14690969E-04  1.14690969E-04  1.14690969E-04  1.14690969E-04  1.14690969E-04  1.14690969E-04  1.54745779E-04  1.54745779E-04  1.54745779E-04  1.54745779E-04  2.10732363E-04  4.40963224E-04  2.81107357E-04  1.70410779E-04  1.61410385E-04  2.25393227E-04  1.86359133E-04  2.18817454E-04  2.18510829E-04
    1.60946158E-04  8.66172415E-05  7.93244514E-05  8.15920147E-05  1.21417754E-04  9.73524001E-05  1.43929291E-04  1.26344532E-04  1.54930007E-04  1.09189878E-04  1.11972407E-04  6.94385452E-05  1.00692999E-04  8.00075680E-05  6.84547232E-05  6.72637260E-05  7.81534937E-05  6.90838270E-05  7.26286032E-05  1.02390294E-04
    9.90019929E-05  7.52418400E-05  1.25816580E-04  1.25816580E-04  1.25816580E-04  1.25816580E-04  8.56177390E-05  8.56177390E-05  8.56177390E-05  8.56177390E-05  8.56177390E-05  8.56177390E-05  8.56177390E-05  8.56177390E-05  8.56177390E-05  8.56177390E-05  8.56177390E-05  8.56177390E-05  8.56177390E-05  6.83474088E-05
    6.83474088E-05  6.83474088E-05  6.83474088E-05  6.83474088E-05  6.83474088E-05  6.83474088E-05  5.83588920E-05  5.24445751E-05  3.19852984E-05  3.15490731E-05  2.28725489E-05  2.47729422E-05  2.58323728E-05  1.51346539E-05  3.43423427E-05  2.79315182E-05  1.95119362E-05  2.20842767E-05  2.69688080E-05  3.88759147E-05
    4.28657429E-05  3.92465649E-05  3.74913218E-05  3.63048610E-05  4.81731869E-05  5.44382255E-05  7.22336718E-05  7.81527514E-05  1.01391024E-04  7.76131628E-05  4.42727209E-05  3.77172904E-05  6.19546214E-05  9.44460647E-05  1.14759898E-04  2.27264859E-04  1.69594180E-04  8.73406194E-05  1.34225248E-04  1.39025835E-04
    8.59397118E-05  1.06012818E-04  8.98712480E-05  6.71988687E-05  9.71116729E-05  9.71116729E-05  9.71116729E-05  9.71116729E-05  1.14690969E-04  1.14690969E-04  1.14690969E-04  1.14690969E-04  1.14690969E-04  1.14690969E-04  1.14690969E-04  1.14690969E-04  1.14690969E-04  1.14690969E-04  1.14690969E-04  1.14690969E-04
    1.14690969E-04  1.14690969E-04  1.14690969E-04  1.14690969E-04  1.54745779E-04  1.54745779E-04  1.54745779E-04  1.54745779E-04  2.10732363E-04  4.40963224E-04  2.81107357E-04  1.70410779E-04  1.61410385E-04  2.25393227E-04  1.86359133E-04  2.18817454E-04  2.18510829E-04  1.60946158E-04  8.66172415E-05  7.93244514E-05
    8.15920147E-05  1.21417754E-04  9.73524001E-05  1.43929291E-04  1.26344532E-04  1.54930007E-04  1.09189878E-04  1.11972407E-04  6.94385452E-05  1.00692999E-04  8.00075680E-05  6.84547232E-05  6.72637260E-05  7.81534937E-05  6.90838270E-05  7.26286032E-05  1.02390294E-04  9.90019929E-05  7.52418400E-05  7.52418400E-05
    7.52418400E-05  7.52418400E-05  1.25816580E-04  1.25816580E-04  1.25816580E-04  1.25816580E-04  1.25816580E-04  1.25816580E-04  1.25816580E-04  1.25816580E-04  1.25816580E-04  1.25816580E-04  1.25816580E-04  1.25816580E-04  1.25816580E-04  8.56177390E-05  8.56177390E-05  8.56177390E-05  8.56177390E-05  8.56177390E-05
    8.56177390E-05  8.56177390E-05  6.83474088E-05  5.83588920E-05  5.24445751E-05  3.19852984E-05  3.15490731E-05  2.28725489E-05  2.47729422E-05  2.58323728E-05  1.51346539E-05  3.43423427E-05  2.79315182E-05  1.95119362E-05  2.20842767E-05  2.69688080E-05  3.88759147E-05  4.28657429E-05  3.92465649E-05  3.74913218E-05
    3.63048610E-05  4.81731869E-05  5.44382255E-05  7.22336718E-05  7.81527514E-05  1.01391024E-04  7.76131628E-05  4.42727209E-05  3.77172904E-05  6.19546214E-05  9.44460647E-05  1.14759898E-04  2.27264859E-04  1.69594180E-04  8.73406194E-05  1.34225248E-04  1.39025835E-04  8.59397118E-05  1.06012818E-04  8.98712480E-05
    6.71988687E-05  9.71116729E-05  9.71116729E-05  9.71116729E-05  9.71116729E-05  1.14690969E-04  1.14690969E-04  1.14690969E-04  1.14690969E-04  1.14690969E-04  1.14690969E-04  1.14690969E-04  1.14690969E-04  1.14690969E-04  1.14690969E-04  1.14690969E-04  1.14690969E-04  1.14690969E-04  1.14690969E-04  1.14690969E-04
    1.14690969E-04  1.54745779E-04  1.54745779E-04  1.54745779E-04  1.54745779E-04  2.10732363E-04  4.40963224E-04  2.81107357E-04  1.70410779E-04  1.61410385E-04  2.25393227E-04  1.86359133E-04  2.18817454E-04  2.18510829E-04  1.60946158E-04  8.66172415E-05  7.93244514E-05  8.15920147E-05  1.21417754E-04  9.73524001E-05
    1.43929291E-04  1.26344532E-04  1.54930007E-04  1.09189878E-04  1.11972407E-04  6.94385452E-05  1.00692999E-04  8.00075680E-05  6.84547232E-05  6.72637260E-05  7.81534937E-05  6.90838270E-05  7.26286032E-05  1.02390294E-04  9.90019929E-05  9.90019929E-05  9.90019929E-05  9.90019929E-05  7.52418400E-05  7.52418400E-05
    7.52418400E-05  7.52418400E-05  7.52418400E-05  7.52418400E-05  7.52418400E-05  7.52418400E-05  7.52418400E-05  7.52418400E-05  7.52418400E-05  7.52418400E-05  7.52418400E-05  1.25816580E-04  1.25816580E-04  1.25816580E-04  1.25816580E-04  1.25816580E-04  1.25816580E-04  1.25816580E-04  8.56177390E-05  6.83474088E-05
    5.83588920E-05  5.24445751E-05  3.19852984E-05  3.15490731E-05  2.28725489E-05  2.47729422E-05  2.58323728E-05  1.51346539E-05  3.43423427E-05  2.79315182E-05  1.95119362E-05  2.20842767E-05  2.69688080E-05  3.88759147E-05  4.28657429E-05  3.92465649E-05  3.74913218E-05  3.63048610E-05  4.81731869E-05  5.44382255E-05
    7.22336718E-05  7.81527514E-05  1.01391024E-04  7.76131628E-05  4.42727209E-05  3.77172904E-05  6.19546214E-05  9.44460647E-05  1.14759898E-04  2.27264859E-04  1.69594180E-04  8.73406194E-05  1.34225248E-04  1.39025835E-04  8.59397118E-05  1.06012818E-04  8.98712480E-05  6.71988687E-05  9.71116729E-05  9.71116729E-05
    9.71116729E-05  9.71116729E-05  1.14690969E-04  1.14690969E-04  1.14690969E-04  1.14690969E-04  1.14690969E-04  1.14690969E-04  1.14690969E-04  1.14690969E-04  1.14690969E-04  1.14690969E-04  1.14690969E-04  1.14690969E-04  1.14690969E-04  1.14690969E-04  1.14690969E-04  1.14690969E-04  1.54745779E-04  1.54745779E-04
    1.54745779E-04  1.54745779E-04  2.10732363E-04  4.40963224E-04  2.81107357E-04  1.70410779E-04  1.61410385E-04  2.25393227E-04  1.86359133E-04  2.18817454E-04  2.18510829E-04  1.60946158E-04  8.66172415E-05  7.93244514E-05  8.15920147E-05  1.21417754E-04  9.73524001E-05  1.43929291E-04  1.26344532E-04  1.54930007E-04
    1.09189878E-04  1.11972407E-04  6.94385452E-05  1.00692999E-04  8.00075680E-05  6.84547232E-05  6.72637260E-05  7.81534937E-05  6.90838270E-05  7.26286032E-05  1.02390294E-04  1.02390294E-04  1.02390294E-04  1.02390294E-04  9.90019929E-05  9.90019929E-05  9.90019929E-05  9.90019929E-05  9.90019929E-05  9.90019929E-05
    9.90019929E-05  9.90019929E-05  9.90019929E-05  9.90019929E-05  9.90019929E-05  9.90019929E-05  9.90019929E-05  7.52418400E-05  7.52418400E-05  7.52418400E-05  7.52418400E-05  7.52418400E-05  7.52418400E-05  7.52418400E-05  1.25816580E-04  8.56177390E-05  6.83474088E-05  5.83588920E-05  5.24445751E-05  3.19852984E-05
    3.15490731E-05  2.28725489E-05  2.47729422E-05  2.58323728E-05  1.51346539E-05  3.43423427E-05  2.79315182E-05  1.95119362E-05  2.20842767E-05  2.69688080E-05  3.88759147E-05  4.28657429E-05  3.92465649E-05  3.74913218E-05  3.63048610E-05  4.81731869E-05  5.44382255E-05  7.22336718E-05  7.81527514E-05  1.01391024E-04
    7.76131628E-05  4.42727209E-05  3.77172904E-05  6.19546214E-05  9.44460647E-05  1.14759898E-04  2.27264859E-04  1.69594180E-04  8.73406194E-05  1.34225248E-04  1.39025835E-04  8.59397118E-05  1.06012818E-04  8.98712480E-05  6.71988687E-05  9.71116729E-05  9.71116729E-05  9.71116729E-05  9.71116729E-05  1.14690969E-04
    1.14690969E-04  1.14690969E-04  1.14690969E-04  1.14690969E-04  1.14690969E-04  1.14690969E-04  1.14690969E-04  1.14690969E-04  1.14690969E-04  1.14690969E-04  1.14690969E-04  1.14690969E-04  1.14690969E-04  1.14690969E-04  1.14690969E-04  1.54745779E-04  1.54745779E-04  1.54745779E-04  1.54745779E-04  2.10732363E-04