# File generated by Flopy version 3.3.3 on 11/09/2021 at 09:44:55.
BEGIN griddata
  strt
    CONSTANT      30.00000000
END griddata

