# File generated by Flopy version 3.3.3 on 11/09/2021 at 09:44:54.
BEGIN options
END options

BEGIN packages
  DISV6  syn_model.disv  disv
  IC6  syn_model.ic  ic
  NPF6  syn_model.npf  npf
  STO6  syn_model.sto  sto
  CHD6  syn_model.chd  chd_0
  DRN6  syn_model.drn  drn_0
  RIV6  syn_model.riv  riv_0
  WEL6  syn_model.wel  wel_0
  RCH6  syn_model.rcha  rcha
  OC6  syn_model.oc  oc
END packages

