# File generated by Flopy version 3.3.3 on 11/09/2021 at 09:44:55.
BEGIN options
  BOUNDNAMES
  SAVE_FLOWS
END options

BEGIN dimensions
  MAXBOUND  2
END dimensions

BEGIN period  1
  1 5352      -0.03055556  w1
  1 8077      -0.02222222  w2
END period  1

