# File generated by Flopy version 3.3.3 on 11/03/2021 at 14:31:27.
BEGIN options
END options

