# File generated by Flopy version 3.3.3 on 11/04/2021 at 17:00:52.
BEGIN options
  READASARRAYS
END options

BEGIN period  1
  recharge
    CONSTANT  9.51293760E-09
END period  1

