# File generated by Flopy version 3.3.3 on 11/03/2021 at 14:31:28.
BEGIN options
  READASARRAYS
END options

BEGIN period  1
  recharge
    CONSTANT  9.51293760E-09
END period  1

