# File generated by Flopy version 3.3.3 on 11/04/2021 at 17:00:52.
BEGIN griddata
  strt
    CONSTANT      30.00000000
END griddata

