# File generated by Flopy version 3.3.3 on 11/09/2021 at 09:44:54.
BEGIN options
END options

