# File generated by Flopy version 3.3.5 on 04/08/2022 at 15:14:52.
BEGIN options
  PRINT_OPTION  all
END options

BEGIN nonlinear
  OUTER_DVCLOSE  1.00000000E-05
  OUTER_MAXIMUM  100
END nonlinear

BEGIN linear
  INNER_MAXIMUM  50
  INNER_DVCLOSE  1.00000000E-06
  inner_rclose  1.00000000E-05  strict
END linear

