# File generated by Flopy version 3.3.5 on 04/08/2022 at 15:14:55.
BEGIN options
END options

BEGIN continuous  FILEOUT  sim/drn.csv
  bar  drn  bar
  gal  drn  gal
END continuous  FILEOUT  sim/drn.csv

