# File generated by Flopy version 3.3.5 on 04/08/2022 at 15:14:52.
BEGIN options
  LENGTH_UNITS  meters
  XORIGIN  4.05575681E+05
  YORIGIN  6.42330654E+06
END options

BEGIN dimensions
  NLAY  1
  NCPL  26674
  NVERT  27090
END dimensions

BEGIN griddata
  top
    INTERNAL  FACTOR  1.0
        30.00000000      30.00000000      30.00000000      30.00000000      30.00000000      30.00000000      30.00000000      30.00000000      30.00000000      30.00000000      30.00000000      30.00000000      30.00000000      30.00000000      30.00000000      30.00000000      30.00000000      30.00000000      30.00000000      30.00000000
        30.00000000      30.00000000      30.00000000      30.00000000      30.00000000      30.00000000      30.00000000      30.00000000      30.00000000      30.00000000      30.00000000      30.00000000      30.00000000      30.00000000      30.00000000      30.00000000      30.00000000      30.00000000      30.00000000      30.00000000
        30.00000000      30.00000000      30.00000000      30.00000000      30.00000000      30.00000000      30.00000000      30.00000000      30.00000000      30.00000000      30.00000000      30.00000000      30.00000000      30.00000000      30.00000000      30.00000000      30.00000000      30.00000000      30.00000000      30.00000000
        30.00000000      30.00000000      30.00000000      30.00000000      30.00000000      30.00000000      30.00000000      30.00000000      30.00000000      30.00000000      30.00000000      30.00000000      30.00000000      30.00000000      30.00000000      30.00000000      30.00000000      30.00000000      30.00000000      30.00000000
        30.00000000      30.00000000      30.00000000      30.00000000      30.00000000      30.00000000      30.00000000      30.00000000      30.00000000      30.00000000      30.00000000      30.00000000      30.00000000      30.00000000      30.00000000      30.00000000      30.00000000      30.00000000      30.00000000      30.00000000
        30.00000000      30.00000000      30.00000000      30.00000000      30.00000000      30.00000000      30.00000000      30.00000000      30.00000000      30.00000000      30.00000000      30.00000000      30.00000000      30.00000000      30.00000000      30.00000000      30.00000000      30.00000000      30.00000000      30.00000000
        30.00000000      30.00000000      30.00000000      30.00000000      30.00000000      30.00000000      30.00000000      30.00000000      30.00000000      30.00000000      30.00000000      30.00000000      30.00000000      30.00000000      30.00000000      30.00000000      30.00000000      30.00000000      30.00000000      30.00000000
        30.00000000      30.00000000      30.00000000      30.00000000      30.00000000      30.00000000      30.00000000      30.00000000      30.00000000      30.00000000      30.00000000      30.00000000      30.00000000      30.00000000      30.00000000      30.00000000      30.00000000      30.00000000      30.00000000      30.00000000
        30.00000000      30.00000000      30.00000000      30.00000000      30.00000000      30.00000000      30.00000000      30.00000000      30.00000000      30.00000000      30.00000000      30.00000000      30.00000000      30.00000000      30.00000000      30.00000000      30.00000000      30.00000000      30.00000000      30.00000000
        30.00000000      30.00000000      30.00000000      30.00000000      30.00000000      30.00000000      30.00000000      30.00000000      30.00000000      30.00000000      30.00000000      30.00000000      30.00000000      30.00000000      30.00000000      30.00000000      30.00000000      30.00000000      30.00000000      30.00000000
        30.00000000      30.00000000      30.00000000      30.00000000      30.00000000      30.00000000      30.00000000      30.00000000      30.00000000      30.00000000      30.00000000      30.00000000      30.00000000      30.00000000      30.00000000      30.00000000      30.00000000      30.00000000      30.00000000      30.00000000
        30.00000000      30.00000000      30.00000000      30.00000000      30.00000000      30.00000000      30.00000000      30.00000000      30.00000000      30.00000000      30.00000000      30.00000000      30.00000000      30.00000000      30.00000000      30.00000000      30.00000000      30.00000000      30.00000000      30.00000000
        30.00000000      30.00000000      30.00000000      30.00000000      30.00000000      30.00000000      30.00000000      30.00000000      30.00000000      30.00000000      30.00000000      30.00000000      30.00000000      30.00000000      30.00000000      30.00000000      30.00000000      30.00000000      30.00000000      30.00000000
        30.00000000      30.00000000      30.00000000      30.00000000      30.00000000      30.00000000      30.00000000      30.00000000      30.00000000      30.00000000      30.00000000      30.00000000      30.00000000      30.00000000      30.00000000      30.00000000      30.00000000      30.00000000      30.00000000      30.00000000
        30.00000000      30.00000000      30.00000000      30.00000000      30.00000000      30.00000000      30.00000000      30.00000000      30.00000000      30.00000000      30.00000000      30.00000000      30.00000000      30.00000000      30.00000000      30.00000000      30.00000000      30.00000000      30.00000000      30.00000000
        30.00000000      30.00000000      30.00000000      30.00000000      30.00000000      30.00000000      30.00000000      30.00000000      30.00000000      30.00000000      30.00000000      30.00000000      30.00000000      30.00000000      30.00000000      30.00000000      30.00000000      30.00000000      30.00000000      30.00000000
        30.00000000      30.00000000      30.00000000      30.00000000      30.00000000      30.00000000      30.00000000      30.00000000      30.00000000      30.00000000      30.00000000      30.00000000      30.00000000      30.00000000      30.00000000      30.00000000      30.00000000      30.00000000      30.00000000      30.00000000
        30.00000000      30.00000000      30.00000000      30.00000000      30.00000000      30.00000000      30.00000000      30.00000000      30.00000000      30.00000000      30.00000000      30.00000000      30.00000000      30.00000000      30.00000000      30.00000000      30.00000000      30.00000000      30.00000000      30.00000000
        30.00000000      30.00000000      30.00000000      30.00000000      30.00000000      30.00000000      30.00000000      30.00000000      30.00000000      30.00000000      30.00000000      30.00000000      30.00000000      30.00000000      30.00000000      30.00000000      30.00000000      30.00000000      30.00000000      30.00000000
        30.00000000      30.00000000      30.00000000      30.00000000      30.00000000      30.00000000      30.00000000      30.00000000      30.00000000      30.00000000      30.00000000      30.00000000      30.00000000      30.00000000      30.00000000      30.00000000      30.00000000      30.00000000      30.00000000      30.00000000
        30.00000000      30.00000000      30.00000000      30.00000000      30.00000000      30.00000000      30.00000000      30.00000000      30.00000000      30.00000000      30.00000000      30.00000000      30.00000000      30.00000000      30.00000000      30.00000000      30.00000000      30.00000000      30.00000000      30.00000000
        30.00000000      30.00000000      30.00000000      30.00000000      30.00000000      30.00000000      30.00000000      30.00000000      30.00000000      30.00000000      30.00000000      30.00000000      30.00000000      30.00000000      30.00000000      30.00000000      30.00000000      30.00000000      30.00000000      30.00000000
        30.00000000      30.00000000      30.00000000      30.00000000      30.00000000      30.00000000      30.00000000      30.00000000      30.00000000      30.00000000      30.00000000      30.00000000      30.00000000      30.00000000      30.00000000      30.00000000      30.00000000      30.00000000      30.00000000      30.00000000
        30.00000000      30.00000000      30.00000000      30.00000000      30.00000000      30.00000000      30.00000000      30.00000000      30.00000000      30.00000000      30.00000000      30.00000000      30.00000000      30.00000000      30.00000000      30.00000000      30.00000000      30.00000000      30.00000000      30.00000000
        30.00000000      30.00000000      30.00000000      30.00000000      30.00000000      30.00000000      30.00000000      30.00000000      30.00000000      30.00000000      30.00000000      30.00000000      30.00000000      30.00000000      30.00000000      30.00000000      30.00000000      30.00000000      30.00000000      30.00000000
        30.00000000      30.00000000      30.00000000      30.00000000      30.00000000      30.00000000      30.00000000      30.00000000      30.00000000      30.00000000      30.00000000      30.00000000      30.00000000      30.00000000      30.00000000      30.00000000      30.00000000      30.00000000      30.00000000      30.00000000
        30.00000000      30.00000000      30.00000000      30.00000000      30.00000000      30.00000000      30.00000000      30.00000000      30.00000000      30.00000000      30.00000000      30.00000000      30.00000000      30.00000000      30.00000000      30.00000000      30.00000000      30.00000000      30.00000000      30.00000000
        30.00000000      30.00000000      30.00000000      30.00000000      30.00000000      30.00000000      30.00000000      30.00000000      30.00000000      30.00000000      30.00000000      30.00000000      30.00000000      30.00000000      30.00000000      30.00000000      30.00000000      30.00000000      30.00000000      30.00000000
        30.00000000      30.00000000      30.00000000      30.00000000      30.00000000      30.00000000      30.00000000      30.00000000      30.00000000      30.00000000      30.00000000      30.00000000      30.00000000      30.00000000      30.00000000      30.00000000      30.00000000      30.00000000      30.00000000      30.00000000
        30.00000000      30.00000000      30.00000000      30.00000000      30.00000000      30.00000000      30.00000000      30.00000000      30.00000000      30.00000000      30.00000000      30.00000000      30.00000000      30.00000000      30.00000000      30.00000000      30.00000000      30.00000000      30.00000000      30.00000000
        30.00000000      30.00000000      30.00000000      30.00000000      30.00000000      30.00000000      30.00000000      30.00000000      30.00000000      30.00000000      30.00000000      30.00000000      30.00000000      30.00000000      30.00000000      30.00000000      30.00000000      30.00000000      30.00000000      30.00000000
        30.00000000      30.00000000      30.00000000      30.00000000      30.00000000      30.00000000      30.00000000      30.00000000      30.00000000      30.00000000      30.00000000      30.00000000      30.00000000      30.00000000      30.00000000      30.00000000      30.00000000      30.00000000      30.00000000      30.00000000
        30.00000000      30.00000000      30.00000000      30.00000000      30.00000000      30.00000000      30.00000000      30.00000000      30.00000000      30.00000000      30.00000000      30.00000000      30.00000000      30.00000000      30.00000000      30.00000000      30.00000000      30.00000000      30.00000000      30.00000000
        30.00000000      30.00000000      30.00000000      30.00000000      30.00000000      30.00000000      30.00000000      30.00000000      30.00000000      30.00000000      30.00000000      30.00000000      30.00000000      30.00000000      30.00000000      30.00000000      30.00000000      30.00000000      30.00000000      30.00000000
        30.00000000      30.00000000      30.00000000      30.00000000      30.00000000      30.00000000      30.00000000      30.00000000      30.00000000      30.00000000      30.00000000      30.00000000      30.00000000      30.00000000      30.00000000      30.00000000      30.00000000      30.00000000      30.00000000      30.00000000
        30.00000000      30.00000000      30.00000000      30.00000000      30.00000000      30.00000000      30.00000000      30.00000000      30.00000000      30.00000000      30.00000000      30.00000000      30.00000000      30.00000000      30.00000000      30.00000000      30.00000000      30.00000000      30.00000000      30.00000000
        30.00000000      30.00000000      30.00000000      30.00000000      30.00000000      30.00000000      30.00000000      30.00000000      30.00000000      30.00000000      30.00000000      30.00000000      30.00000000      30.00000000      30.00000000      30.00000000      30.00000000      30.00000000      30.00000000      30.00000000
        30.00000000      30.00000000      30.00000000      30.00000000      30.00000000      30.00000000      30.00000000      30.00000000      30.00000000      30.00000000      30.00000000      30.00000000      30.00000000      30.00000000      30.00000000      30.00000000      30.00000000      30.00000000      30.00000000      30.00000000
        30.00000000      30.00000000      30.00000000      30.00000000      30.00000000      30.00000000      30.00000000      30.00000000      30.00000000      30.00000000      30.00000000      30.00000000      30.00000000      30.00000000      30.00000000      30.00000000      30.00000000      30.00000000      30.00000000      30.00000000
        30.00000000      30.00000000      30.00000000      30.00000000      30.00000000      30.00000000      30.00000000      30.00000000      30.00000000      30.00000000      30.00000000      30.00000000      30.00000000      30.00000000      30.00000000      30.00000000      30.00000000      30.00000000      30.00000000      30.00000000
        30.00000000      30.00000000      30.00000000      30.00000000      30.00000000      30.00000000      30.00000000      30.00000000      30.00000000      30.00000000      30.00000000      30.00000000      30.00000000      30.00000000      30.00000000      30.00000000      30.00000000      30.00000000      30.00000000      30.00000000
        30.00000000      30.00000000      30.00000000      30.00000000      30.00000000      30.00000000      30.00000000      30.00000000      30.00000000      30.00000000      30.00000000      30.00000000      30.00000000      30.00000000      30.00000000      30.00000000      30.00000000      30.00000000      30.00000000      30.00000000
        30.00000000      30.00000000      30.00000000      30.00000000      30.00000000      30.00000000      30.00000000      30.00000000      30.00000000      30.00000000      30.00000000      30.00000000      30.00000000      30.00000000      30.00000000      30.00000000      30.00000000      30.00000000      30.00000000      30.00000000
        30.00000000      30.00000000      30.00000000      30.00000000      30.00000000      30.00000000      30.00000000      30.00000000      30.00000000      30.00000000      30.00000000      30.00000000      30.00000000      30.00000000      30.00000000      30.00000000      30.00000000      30.00000000      30.00000000      30.00000000
        30.00000000      30.00000000      30.00000000      30.00000000      30.00000000      30.00000000      30.00000000      30.00000000      30.00000000      30.00000000      30.00000000      30.00000000      30.00000000      30.00000000      30.00000000      30.00000000      30.00000000      30.00000000      30.00000000      30.00000000
        30.00000000      30.00000000      30.00000000      30.00000000      30.00000000      30.00000000      30.00000000      30.00000000      30.00000000      30.00000000      30.00000000      30.00000000      30.00000000      30.00000000      30.00000000      30.00000000      30.00000000      30.00000000      30.00000000      30.00000000
        30.00000000      30.00000000      30.00000000      30.00000000      30.00000000      30.00000000      30.00000000      30.00000000      30.00000000      30.00000000      30.00000000      30.00000000      30.00000000      30.00000000      30.00000000      30.00000000      30.00000000      30.00000000      30.00000000      30.00000000
        30.00000000      30.00000000      30.00000000      30.00000000      30.00000000      30.00000000      30.00000000      30.00000000      30.00000000      30.00000000      30.00000000      30.00000000      30.00000000      30.00000000      30.00000000      30.00000000      30.00000000      30.00000000      30.00000000      30.00000000
        30.00000000      30.00000000      30.00000000      30.00000000      30.00000000      30.00000000      30.00000000      30.00000000      30.00000000      30.00000000      30.00000000      30.00000000      30.00000000      30.00000000      30.00000000      30.00000000      30.00000000      30.00000000      30.00000000      30.00000000
        30.00000000      30.00000000      30.00000000      30.00000000      30.00000000      30.00000000      30.00000000      30.00000000      30.00000000      30.00000000      30.00000000      30.00000000      30.00000000      30.00000000      30.00000000      30.00000000      30.00000000      30.00000000      30.00000000      30.00000000
        30.00000000      30.00000000      30.00000000      30.00000000      30.00000000      30.00000000      30.00000000      30.00000000      30.00000000      30.00000000      30.00000000      30.00000000      30.00000000      30.00000000      30.00000000      30.00000000      30.00000000      30.00000000      30.00000000      30.00000000
        30.00000000      30.00000000      30.00000000      30.00000000      30.00000000      30.00000000      30.00000000      30.00000000      30.00000000      30.00000000      30.00000000      30.00000000      30.00000000      30.00000000      30.00000000      30.00000000      30.00000000      30.00000000      30.00000000      30.00000000
        30.00000000      30.00000000      30.00000000      30.00000000      30.00000000      30.00000000      30.00000000      30.00000000      30.00000000      30.00000000      30.00000000      30.00000000      30.00000000      30.00000000      30.00000000      30.00000000      30.00000000      30.00000000      30.00000000      30.00000000
        30.00000000      30.00000000      30.00000000      30.00000000      30.00000000      30.00000000      30.00000000      30.00000000      30.00000000      30.00000000      30.00000000      30.00000000      30.00000000      30.00000000      30.00000000      30.00000000      30.00000000      30.00000000      30.00000000      30.00000000
        30.00000000      30.00000000      30.00000000      30.00000000      30.00000000      30.00000000      30.00000000      30.00000000      30.00000000      30.00000000      30.00000000      30.00000000      30.00000000      30.00000000      30.00000000      30.00000000      30.00000000      30.00000000      30.00000000      30.00000000
        30.00000000      30.00000000      30.00000000      30.00000000      30.00000000      30.00000000      30.00000000      30.00000000      30.00000000      30.00000000      30.00000000      30.00000000      30.00000000      30.00000000      30.00000000      30.00000000      30.00000000      30.00000000      30.00000000      30.00000000
        30.00000000      30.00000000      30.00000000      30.00000000      30.00000000      30.00000000      30.00000000      30.00000000      30.00000000      30.00000000      30.00000000      30.00000000      30.00000000      30.00000000      30.00000000      30.00000000      30.00000000      30.00000000      30.00000000      30.00000000
        30.00000000      30.00000000      30.00000000      30.00000000      30.00000000      30.00000000      30.00000000      30.00000000      30.00000000      30.00000000      30.00000000      30.00000000      30.00000000      30.00000000      30.00000000      30.00000000      30.00000000      30.00000000      30.00000000      30.00000000
        30.00000000      30.00000000      30.00000000      30.00000000      30.00000000      30.00000000      30.00000000      30.00000000      30.00000000      30.00000000      30.00000000      30.00000000      30.00000000      30.00000000      30.00000000      30.00000000      30.00000000      30.00000000      30.00000000      30.00000000
        30.00000000      30.00000000      30.00000000      30.00000000      30.00000000      30.00000000      30.00000000      30.00000000      30.00000000      30.00000000      30.00000000      30.00000000      30.00000000      30.00000000      30.00000000      30.00000000      30.00000000      30.00000000      30.00000000      30.00000000
        30.00000000      30.00000000      30.00000000      30.00000000      30.00000000      30.00000000      30.00000000      30.00000000      30.00000000      30.00000000      30.00000000      30.00000000      30.00000000      30.00000000      30.00000000      30.00000000      30.00000000      30.00000000      30.00000000      30.00000000
        30.00000000      30.00000000      30.00000000      30.00000000      30.00000000      30.00000000      30.00000000      30.00000000      30.00000000      30.00000000      30.00000000      30.00000000      30.00000000      30.00000000      30.00000000      30.00000000      30.00000000      30.00000000      30.00000000      30.00000000
        30.00000000      30.00000000      30.00000000      30.00000000      30.00000000      30.00000000      30.00000000      30.00000000      30.00000000      30.00000000      30.00000000      30.00000000      30.00000000      30.00000000      30.00000000      30.00000000      30.00000000      30.00000000      30.00000000      30.00000000
        30.00000000      30.00000000      30.00000000      30.00000000      30.00000000      30.00000000      30.00000000      30.00000000      30.00000000      30.00000000      30.00000000      30.00000000      30.00000000      30.00000000      30.00000000      30.00000000      30.00000000      30.00000000      30.00000000      30.00000000
        30.00000000      30.00000000      30.00000000      30.00000000      30.00000000      30.00000000      30.00000000      30.00000000      30.00000000      30.00000000      30.00000000      30.00000000      30.00000000      30.00000000      30.00000000      30.00000000      30.00000000      30.00000000      30.00000000      30.00000000
        30.00000000      30.00000000      30.00000000      30.00000000      30.00000000      30.00000000      30.00000000      30.00000000      30.00000000      30.00000000      30.00000000      30.00000000      30.00000000      30.00000000      30.00000000      30.00000000      30.00000000      30.00000000      30.00000000      30.00000000
        30.00000000      30.00000000      30.00000000      30.00000000      30.00000000      30.00000000      30.00000000      30.00000000      30.00000000      30.00000000      30.00000000      30.00000000      30.00000000      30.00000000      30.00000000      30.00000000      30.00000000      30.00000000      30.00000000      30.00000000
        30.00000000      30.00000000      30.00000000      30.00000000      30.00000000      30.00000000      30.00000000      30.00000000      30.00000000      30.00000000      30.00000000      30.00000000      30.00000000      30.00000000      30.00000000      30.00000000      30.00000000      30.00000000      30.00000000      30.00000000
        30.00000000      30.00000000      30.00000000      30.00000000      30.00000000      30.00000000      30.00000000      30.00000000      30.00000000      30.00000000      30.00000000      30.00000000      30.00000000      30.00000000      30.00000000      30.00000000      30.00000000      30.00000000      30.00000000      30.00000000
        30.00000000      30.00000000      30.00000000      30.00000000      30.00000000      30.00000000      30.00000000      30.00000000      30.00000000      30.00000000      30.00000000      30.00000000      30.00000000      30.00000000      30.00000000      30.00000000      30.00000000      30.00000000      30.00000000      30.00000000
        30.00000000      30.00000000      30.00000000      30.00000000      30.00000000      30.00000000      30.00000000      30.00000000      30.00000000      30.00000000      30.00000000      30.00000000      30.00000000      30.00000000      30.00000000      30.00000000      30.00000000      30.00000000      30.00000000      30.00000000
        30.00000000      30.00000000      30.00000000      30.00000000      30.00000000      30.00000000      30.00000000      30.00000000      30.00000000      30.00000000      30.00000000      30.00000000      30.00000000      30.00000000      30.00000000      30.00000000      30.00000000      30.00000000      30.00000000      30.00000000
        30.00000000      30.00000000      30.00000000      30.00000000      30.00000000      30.00000000      30.00000000      30.00000000      30.00000000      30.00000000      30.00000000      30.00000000      30.00000000      30.00000000      30.00000000      30.00000000      30.00000000      30.00000000      30.00000000      30.00000000
        30.00000000      30.00000000      30.00000000      30.00000000      30.00000000      30.00000000      30.00000000      30.00000000      30.00000000      30.00000000      30.00000000      30.00000000      30.00000000      30.00000000      30.00000000      30.00000000      30.00000000      30.00000000      30.00000000      30.00000000
        30.00000000      30.00000000      30.00000000      30.00000000      30.00000000      30.00000000      30.00000000      30.00000000      30.00000000      30.00000000      30.00000000      30.00000000      30.00000000      30.00000000      30.00000000      30.00000000      30.00000000      30.00000000      30.00000000      30.00000000
        30.00000000      30.00000000      30.00000000      30.00000000      30.00000000      30.00000000      30.00000000      30.00000000      30.00000000      30.00000000      30.00000000      30.00000000      30.00000000      30.00000000      30.00000000      30.00000000      30.00000000      30.00000000      30.00000000      30.00000000
        30.00000000      30.00000000      30.00000000      30.00000000      30.00000000      30.00000000      30.00000000      30.00000000      30.00000000      30.00000000      30.00000000      30.00000000      30.00000000      30.00000000      30.00000000      30.00000000      30.00000000      30.00000000      30.00000000      30.00000000
        30.00000000      30.00000000      30.00000000      30.00000000      30.00000000      30.00000000      30.00000000      30.00000000      30.00000000      30.00000000      30.00000000      30.00000000      30.00000000      30.00000000      30.00000000      30.00000000      30.00000000      30.00000000      30.00000000      30.00000000
        30.00000000      30.00000000      30.00000000      30.00000000      30.00000000      30.00000000      30.00000000      30.00000000      30.00000000      30.00000000      30.00000000      30.00000000      30.00000000      30.00000000      30.00000000      30.00000000      30.00000000      30.00000000      30.00000000      30.00000000
        30.00000000      30.00000000      30.00000000      30.00000000      30.00000000      30.00000000      30.00000000      30.00000000      30.00000000      30.00000000      30.00000000      30.00000000      30.00000000      30.00000000      30.00000000      30.00000000      30.00000000      30.00000000      30.00000000      30.00000000
        30.00000000      30.00000000      30.00000000      30.00000000      30.00000000      30.00000000      30.00000000      30.00000000      30.00000000      30.00000000      30.00000000      30.00000000      30.00000000      30.00000000      30.00000000      30.00000000      30.00000000      30.00000000      30.00000000      30.00000000
        30.00000000      30.00000000      30.00000000      30.00000000      30.00000000      30.00000000      30.00000000      30.00000000      30.00000000      30.00000000      30.00000000      30.00000000      30.00000000      30.00000000      30.00000000      30.00000000      30.00000000      30.00000000      30.00000000      30.00000000
        30.00000000      30.00000000      30.00000000      30.00000000      30.00000000      30.00000000      30.00000000      30.00000000      30.00000000      30.00000000      30.00000000      30.00000000      30.00000000      30.00000000      30.00000000      30.00000000      30.00000000      30.00000000      30.00000000      30.00000000
        30.00000000      30.00000000      30.00000000      30.00000000      30.00000000      30.00000000      30.00000000      30.00000000      30.00000000      30.00000000      30.00000000      30.00000000      30.00000000      30.00000000      30.00000000      30.00000000      30.00000000      30.00000000      30.00000000      30.00000000
        30.00000000      30.00000000      30.00000000      30.00000000      30.00000000      30.00000000      30.00000000      30.00000000      30.00000000      30.00000000      30.00000000      30.00000000      30.00000000      30.00000000      30.00000000      30.00000000      30.00000000      30.00000000      30.00000000      30.00000000
        30.00000000      30.00000000      30.00000000      30.00000000      30.00000000      30.00000000      30.00000000      30.00000000      30.00000000      30.00000000      30.00000000      30.00000000      30.00000000      30.00000000      30.00000000      30.00000000      30.00000000      30.00000000      30.00000000      30.00000000