# File generated by Flopy version 3.3.5 on 04/08/2022 at 15:14:55.
BEGIN options
  BOUNDNAMES
  SAVE_FLOWS
END options

BEGIN dimensions
  MAXBOUND  153
END dimensions

BEGIN period  1
  1 1      22.00000000       0.10000000  ghb_n
  1 2      22.00000000       0.10000000  ghb_n
  1 5      22.00000000       0.10000000  ghb_n
  1 3      22.00000000       0.10000000  ghb_n
  1 4      22.00000000       0.10000000  ghb_n
  1 6      22.00000000       0.10000000  ghb_n
  1 5      22.00000000       0.10000000  ghb_n
  1 9      22.00000000       0.10000000  ghb_n
  1 8      22.00000000       0.10000000  ghb_n
  1 9      22.00000000       0.10000000  ghb_n
  1 13      22.00000000       0.10000000  ghb_n
  1 12      22.00000000       0.10000000  ghb_n
  1 13      22.00000000       0.10000000  ghb_n
  1 16      22.00000000       0.10000000  ghb_n
  1 20      22.00000000       0.10000000  ghb_n
  1 17      22.00000000       0.10000000  ghb_n
  1 20      22.00000000       0.10000000  ghb_n
  1 24      22.00000000       0.10000000  ghb_n
  1 21      22.00000000       0.10000000  ghb_n
  1 24      22.00000000       0.10000000  ghb_n
  1 26      22.00000000       0.10000000  ghb_n
  1 25      22.00000000       0.10000000  ghb_n
  1 26      22.00000000       0.10000000  ghb_n
  1 61      22.00000000       0.10000000  ghb_n
  1 57      22.00000000       0.10000000  ghb_n
  1 60      22.00000000       0.10000000  ghb_n
  1 61      22.00000000       0.10000000  ghb_n
  1 99      22.00000000       0.10000000  ghb_n
  1 98      22.00000000       0.10000000  ghb_n
  1 99      22.00000000       0.10000000  ghb_n
  1 102      22.00000000       0.10000000  ghb_n
  1 101      22.00000000       0.10000000  ghb_n
  1 102      22.00000000       0.10000000  ghb_n
  1 149      22.00000000       0.10000000  ghb_n
  1 103      22.00000000       0.10000000  ghb_n
  1 146      22.00000000       0.10000000  ghb_n
  1 149      22.00000000       0.10000000  ghb_n
  1 197      22.00000000       0.10000000  ghb_n
  1 150      22.00000000       0.10000000  ghb_n
  1 197      22.00000000       0.10000000  ghb_n
  1 200      22.00000000       0.10000000  ghb_n
  1 198      22.00000000       0.10000000  ghb_n
  1 200      22.00000000       0.10000000  ghb_n
  1 258      22.00000000       0.10000000  ghb_n
  1 201      22.00000000       0.10000000  ghb_n
  1 255      22.00000000       0.10000000  ghb_n
  1 202      22.00000000       0.10000000  ghb_n
  1 258      22.00000000       0.10000000  ghb_n
  1 262      22.00000000       0.10000000  ghb_n
  1 259      22.00000000       0.10000000  ghb_n
  1 261      22.00000000       0.10000000  ghb_n
  1 262      22.00000000       0.10000000  ghb_n
  1 602      22.00000000       0.10000000  ghb_n
  1 263      22.00000000       0.10000000  ghb_n
  1 601      22.00000000       0.10000000  ghb_n
  1 264      22.00000000       0.10000000  ghb_n
  1 602      22.00000000       0.10000000  ghb_n
  1 606      22.00000000       0.10000000  ghb_n
  1 605      22.00000000       0.10000000  ghb_n
  1 606      22.00000000       0.10000000  ghb_n
  1 2783      22.00000000       0.10000000  ghb_n
  1 608      22.00000000       0.10000000  ghb_n
  1 610      22.00000000       0.10000000  ghb_n
  1 609      22.00000000       0.10000000  ghb_n
  1 26670      22.00000000       0.20000000  ghb_s
  1 26651      22.00000000       0.20000000  ghb_s
  1 26669      22.00000000       0.20000000  ghb_s
  1 26654      22.00000000       0.20000000  ghb_s
  1 26667      22.00000000       0.20000000  ghb_s
  1 26651      22.00000000       0.20000000  ghb_s
  1 26650      22.00000000       0.20000000  ghb_s
  1 26625      22.00000000       0.20000000  ghb_s
  1 26628      22.00000000       0.20000000  ghb_s
  1 26627      22.00000000       0.20000000  ghb_s
  1 26625      22.00000000       0.20000000  ghb_s
  1 26591      22.00000000       0.20000000  ghb_s
  1 26624      22.00000000       0.20000000  ghb_s
  1 26593      22.00000000       0.20000000  ghb_s
  1 26594      22.00000000       0.20000000  ghb_s
  1 26591      22.00000000       0.20000000  ghb_s
  1 26546      22.00000000       0.20000000  ghb_s
  1 26590      22.00000000       0.20000000  ghb_s
  1 26547      22.00000000       0.20000000  ghb_s
  1 26550      22.00000000       0.20000000  ghb_s
  1 26549      22.00000000       0.20000000  ghb_s
  1 26546      22.00000000       0.20000000  ghb_s
  1 26492      22.00000000       0.20000000  ghb_s
  1 26545      22.00000000       0.20000000  ghb_s
  1 26495      22.00000000       0.20000000  ghb_s
  1 26492      22.00000000       0.20000000  ghb_s
  1 26491      22.00000000       0.20000000  ghb_s
  1 26426      22.00000000       0.20000000  ghb_s
  1 26489      22.00000000       0.20000000  ghb_s
  1 26488      22.00000000       0.20000000  ghb_s
  1 26426      22.00000000       0.20000000  ghb_s
  1 26352      22.00000000       0.20000000  ghb_s
  1 26425      22.00000000       0.20000000  ghb_s
  1 26355      22.00000000       0.20000000  ghb_s
  1 26423      22.00000000       0.20000000  ghb_s
  1 26352      22.00000000       0.20000000  ghb_s
  1 26219      22.00000000       0.20000000  ghb_s
  1 26351      22.00000000       0.20000000  ghb_s
  1 26221      22.00000000       0.20000000  ghb_s
  1 26222      22.00000000       0.20000000  ghb_s
  1 26219      22.00000000       0.20000000  ghb_s
  1 25872      22.00000000       0.20000000  ghb_s
  1 25870      22.00000000       0.20000000  ghb_s
  1 22787      22.00000000       0.20000000  ghb_s
  1 22789      22.00000000       0.20000000  ghb_s
  1 22787      22.00000000       1.00000000  ghb_w
  1 17789      22.00000000       1.00000000  ghb_w
  1 12789      22.00000000       1.00000000  ghb_w
  1 17787      22.00000000       1.00000000  ghb_w
  1 12789      22.00000000       1.00000000  ghb_w
  1 7788      22.00000000       1.00000000  ghb_w
  1 12787      22.00000000       1.00000000  ghb_w
  1 7788      22.00000000       1.00000000  ghb_w
  1 2787      22.00000000       1.00000000  ghb_w
  1 7789      22.00000000       1.00000000  ghb_w
  1 7787      22.00000000       1.00000000  ghb_w
  1 2787      22.00000000       1.00000000  ghb_w
  1 2786      22.00000000       1.00000000  ghb_w
  1 612      22.00000000       1.00000000  ghb_w
  1 611      22.00000000       1.00000000  ghb_w
  1 614      22.00000000       1.00000000  ghb_w
  1 612      22.00000000       1.00000000  ghb_w
  1 266      22.00000000       1.00000000  ghb_w
  1 613      22.00000000       1.00000000  ghb_w
  1 266      22.00000000       1.00000000  ghb_w
  1 267      22.00000000       1.00000000  ghb_w
  1 265      22.00000000       1.00000000  ghb_w
  1 267      22.00000000       1.00000000  ghb_w
  1 204      22.00000000       1.00000000  ghb_w
  1 203      22.00000000       1.00000000  ghb_w
  1 205      22.00000000       1.00000000  ghb_w
  1 203      22.00000000       1.00000000  ghb_w
  1 151      22.00000000       1.00000000  ghb_w
  1 152      22.00000000       1.00000000  ghb_w
  1 151      22.00000000       1.00000000  ghb_w
  1 104      22.00000000       1.00000000  ghb_w
  1 105      22.00000000       1.00000000  ghb_w
  1 107      22.00000000       1.00000000  ghb_w
  1 105      22.00000000       1.00000000  ghb_w
  1 64      22.00000000       1.00000000  ghb_w
  1 62      22.00000000       1.00000000  ghb_w
  1 27      22.00000000       1.00000000  ghb_w
  1 63      22.00000000       1.00000000  ghb_w
  1 27      22.00000000       1.00000000  ghb_w
  1 30      22.00000000       1.00000000  ghb_w
  1 29      22.00000000       1.00000000  ghb_w
  1 28      22.00000000       1.00000000  ghb_w
  1 29      22.00000000       1.00000000  ghb_w
  1 1      22.00000000       1.00000000  ghb_w
END period  1

