# File generated by Flopy version 3.3.5 on 04/08/2022 at 15:14:55.
BEGIN options
  SAVE_FLOWS
  SAVE_SPECIFIC_DISCHARGE
END options

BEGIN griddata
  icelltype
    CONSTANT  0
  k
    INTERNAL  FACTOR  1.0
    1.11741500E-04  1.11741500E-04  1.11741500E-04  1.11741500E-04  1.11741500E-04  1.11741500E-04  1.11741500E-04  1.11741500E-04  1.11741500E-04  1.11741500E-04  1.11741500E-04  1.11741500E-04  1.11741500E-04  1.11741500E-04  1.11741500E-04  1.11741500E-04  1.11741500E-04  1.11741500E-04  1.11741500E-04  1.11741500E-04
    1.11741500E-04  1.11741500E-04  1.11741500E-04  1.11741500E-04  1.11741500E-04  1.11741500E-04  1.11741500E-04  1.11741500E-04  1.11741500E-04  1.11741500E-04  1.11741500E-04  1.11741500E-04  1.11741500E-04  1.11741500E-04  1.11741500E-04  1.11741500E-04  1.11741500E-04  1.11741500E-04  1.11741500E-04  1.11741500E-04
    1.11741500E-04  1.11741500E-04  1.11741500E-04  1.11741500E-04  1.11741500E-04  1.11741500E-04  1.11741500E-04  1.11741500E-04  1.11741500E-04  1.11741500E-04  1.11741500E-04  1.11741500E-04  1.11741500E-04  1.11741500E-04  1.11741500E-04  1.11741500E-04  1.11741500E-04  1.11741500E-04  1.11741500E-04  1.11741500E-04
    1.11741500E-04  1.11741500E-04  1.11741500E-04  1.11741500E-04  1.11741500E-04  1.11741500E-04  1.11741500E-04  1.11741500E-04  1.11741500E-04  1.11741500E-04  1.11741500E-04  1.11741500E-04  1.11741500E-04  1.11741500E-04  1.11741500E-04  1.11741500E-04  1.11741500E-04  1.11741500E-04  1.11741500E-04  1.11741500E-04
    1.11741500E-04  1.11741500E-04  1.11741500E-04  1.11741500E-04  1.11741500E-04  1.11741500E-04  1.11741500E-04  1.11741500E-04  1.11741500E-04  1.11741500E-04  1.11741500E-04  1.11741500E-04  1.11741500E-04  1.11741500E-04  1.11741500E-04  1.11741500E-04  1.11741500E-04  1.11741500E-04  1.11741500E-04  1.11741500E-04
    1.11741500E-04  1.11741500E-04  1.11741500E-04  1.11741500E-04  1.11741500E-04  1.11741500E-04  1.11741500E-04  1.11741500E-04  1.11741500E-04  1.11741500E-04  1.11741500E-04  1.11741500E-04  1.11741500E-04  1.11741500E-04  1.11741500E-04  1.11741500E-04  1.11741500E-04  1.11741500E-04  1.11741500E-04  1.11741500E-04
    1.11741500E-04  1.11741500E-04  1.11741500E-04  1.11741500E-04  1.11741500E-04  1.11741500E-04  1.11741500E-04  1.11741500E-04  1.11741500E-04  1.11741500E-04  1.11741500E-04  1.11741500E-04  1.11741500E-04  1.11741500E-04  1.11741500E-04  1.11741500E-04  1.11741500E-04  1.11741500E-04  1.11741500E-04  1.11741500E-04
    1.11741500E-04  1.11741500E-04  1.11741500E-04  1.11741500E-04  1.11741500E-04  1.11741500E-04  1.11741500E-04  1.11741500E-04  1.11741500E-04  1.11741500E-04  1.11741500E-04  1.11741500E-04  1.11741500E-04  1.11741500E-04  1.12055400E-04  1.11767400E-04  1.11741500E-04  1.11741500E-04  1.11741500E-04  1.11741500E-04
    1.11741500E-04  1.11741500E-04  1.11741500E-04  1.11741500E-04  1.11741500E-04  1.11741500E-04  1.11741500E-04  1.11741500E-04  1.11741500E-04  1.11741500E-04  1.11741500E-04  1.11741500E-04  1.11741500E-04  1.11741500E-04  1.11741500E-04  1.11741500E-04  1.11741500E-04  1.11741500E-04  1.11741500E-04  1.11741500E-04
    1.11741500E-04  1.11741500E-04  1.11741500E-04  1.11741500E-04  1.11741500E-04  1.11741500E-04  1.11741500E-04  1.11741500E-04  1.11741500E-04  1.11741500E-04  1.11741500E-04  1.11741500E-04  1.11741500E-04  1.11741500E-04  1.11741500E-04  1.11741500E-04  1.11741500E-04  1.11741500E-04  1.11741500E-04  1.11741500E-04
    1.11741500E-04  1.11741500E-04  1.12154800E-04  1.12452400E-04  1.11900900E-04  1.12079000E-04  1.11741500E-04  1.11827900E-04  1.11741500E-04  1.11741500E-04  1.11741500E-04  1.11741500E-04  1.11741500E-04  1.11741500E-04  1.11741500E-04  1.11882800E-04  1.12290700E-04  1.11741500E-04  1.11843500E-04  1.11741500E-04
    1.11915800E-04  1.11741500E-04  1.11741500E-04  1.11741500E-04  1.11741500E-04  1.11741500E-04  1.11763400E-04  1.11906700E-04  1.11741500E-04  1.11741500E-04  1.11741500E-04  1.12310200E-04  1.11901700E-04  1.11741500E-04  1.11741500E-04  1.11741500E-04  1.11741500E-04  1.11741500E-04  1.11741500E-04  1.11741500E-04
    1.11741500E-04  1.11741500E-04  1.11741500E-04  1.11741500E-04  1.11741500E-04  1.11741500E-04  1.11741500E-04  1.11741500E-04  1.11741500E-04  1.11741500E-04  1.11741500E-04  1.11741500E-04  1.11741500E-04  1.11741500E-04  1.11741500E-04  1.11741500E-04  1.11741500E-04  1.11741500E-04  1.11741500E-04  1.11741500E-04
    1.11741500E-04  1.11741500E-04  1.11741500E-04  1.11741500E-04  1.13039800E-04  1.12509200E-04  1.12059700E-04  1.11741500E-04  1.12360300E-04  1.11741500E-04  1.11741500E-04  1.11741500E-04  1.11741500E-04  1.11741500E-04  1.11748900E-04  1.11741500E-04  1.11741500E-04  1.11741500E-04  1.11743700E-04  1.11741500E-04
    1.11741500E-04  1.11741500E-04  1.11741500E-04  1.11741500E-04  1.11775400E-04  1.11804300E-04  1.11741500E-04  1.11741500E-04  1.11741500E-04  1.11741500E-04  1.11741500E-04  1.11922600E-04  1.11760000E-04  1.11934400E-04  1.11741500E-04  1.11800900E-04  1.11787700E-04  1.11777900E-04  1.11772300E-04  1.11788700E-04
    1.11917300E-04  1.11901500E-04  1.11914500E-04  1.11900500E-04  1.11895800E-04  1.12098900E-04  1.11937000E-04  1.12255400E-04  1.12247100E-04  1.13788500E-04  1.12487100E-04  1.14774900E-04  1.12096100E-04  1.12439800E-04  1.11980000E-04  1.12389200E-04  1.12658700E-04  1.15681000E-04  1.12759600E-04  1.16449900E-04
    1.12358900E-04  1.14036600E-04  1.14360100E-04  1.16984200E-04  1.14530800E-04  1.14068600E-04  1.18279300E-04  1.17235000E-04  1.15851100E-04  1.18222800E-04  1.17762600E-04  1.21008600E-04  1.20419500E-04  1.21948500E-04  1.23760600E-04  1.25959900E-04  1.19637800E-04  1.24058400E-04  1.21495500E-04  1.27819200E-04
    1.28381500E-04  1.31637100E-04  1.34162600E-04  1.39204700E-04  1.22645800E-04  1.22538100E-04  1.27022600E-04  1.27067900E-04  1.21601200E-04  1.21919200E-04  1.25573800E-04  1.25536200E-04  1.32943600E-04  1.33160800E-04  1.42100700E-04  1.42845900E-04  1.31656600E-04  1.30270200E-04  1.40021000E-04  1.37146600E-04
    1.12639000E-04  1.13679800E-04  1.15482400E-04  1.18735500E-04  1.16497700E-04  1.17948400E-04  1.23814500E-04  1.25141800E-04  1.21444100E-04  1.22334300E-04  1.25128000E-04  1.26757900E-04  1.24923700E-04  1.27376700E-04  1.29201600E-04  1.33269400E-04  1.29415000E-04  1.30987300E-04  1.34803100E-04  1.35701200E-04
    1.35490100E-04  1.40069600E-04  1.41585800E-04  1.48458000E-04  1.30551200E-04  1.33664800E-04  1.37437000E-04  1.41338400E-04  1.34468900E-04  1.34594200E-04  1.43757800E-04  1.44469700E-04  1.46162600E-04  1.52542400E-04  1.57625500E-04  1.69038900E-04  1.56037900E-04  1.57269800E-04  1.76853900E-04  1.77453300E-04
    1.16580600E-04  1.13256200E-04  1.23021100E-04  1.18653500E-04  1.13215900E-04  1.15892000E-04  1.17972700E-04  1.21472400E-04  1.35357200E-04  1.31664900E-04  1.43690100E-04  1.38797400E-04  1.27220400E-04  1.26907200E-04  1.34836100E-04  1.32111900E-04  1.53842100E-04  1.49781600E-04  1.71309400E-04  1.65277000E-04
    1.42107000E-04  1.38054400E-04  1.53998300E-04  1.47166800E-04  1.26079700E-04  1.25784600E-04  1.31006200E-04  1.32737900E-04  1.27590600E-04  1.30361900E-04  1.33204900E-04  1.36839400E-04  1.36417000E-04  1.38916100E-04  1.43403600E-04  1.47790400E-04  1.42231700E-04  1.45038100E-04  1.54647100E-04  1.58007500E-04
    1.16817600E-04  1.15864500E-04  1.23214500E-04  1.22103400E-04  1.13585400E-04  1.13022000E-04  1.18012000E-04  1.17213400E-04  1.30874400E-04  1.31015400E-04  1.38244600E-04  1.38268500E-04  1.30430300E-04  1.27673600E-04  1.36849300E-04  1.33233100E-04  1.47723800E-04  1.47723700E-04  1.62417000E-04  1.62147000E-04
    1.45586800E-04  1.41551600E-04  1.57579900E-04  1.50916200E-04  1.25992300E-04  1.24731700E-04  1.31481000E-04  1.29173300E-04  1.24160700E-04  1.25686100E-04  1.29187000E-04  1.30960800E-04  1.37628900E-04  1.34060200E-04  1.45010700E-04  1.41206600E-04  1.34477800E-04  1.37386300E-04  1.40807600E-04  1.45647500E-04
    1.15386100E-04  1.16244400E-04  1.20858800E-04  1.22407800E-04  1.15336900E-04  1.12688600E-04  1.20189900E-04  1.15880900E-04  1.28190300E-04  1.28676900E-04  1.33926800E-04  1.35155900E-04  1.29741600E-04  1.29676000E-04  1.37232900E-04  1.36929600E-04  1.41865300E-04  1.45282000E-04  1.53541100E-04  1.59148600E-04
    1.47393400E-04  1.46861800E-04  1.64168400E-04  1.62765700E-04  1.28477300E-04  1.25772600E-04  1.35109900E-04  1.31631600E-04  1.22041800E-04  1.18082600E-04  1.26443300E-04  1.21008600E-04  1.44608800E-04  1.38906400E-04  1.57701100E-04  1.48967200E-04  1.31408300E-04  1.23968100E-04  1.37767700E-04  1.27219600E-04
    1.11861300E-04  1.11741500E-04  1.12046400E-04  1.11745600E-04  1.11741500E-04  1.11741500E-04  1.11741500E-04  1.11741500E-04  1.14631600E-04  1.12555200E-04  1.16102800E-04  1.12931400E-04  1.12257400E-04  1.11916900E-04  1.12496200E-04  1.12017000E-04  1.17443600E-04  1.13189700E-04  1.18567600E-04  1.13336300E-04
    1.12706200E-04  1.12233900E-04  1.12627900E-04  1.12067100E-04  1.11741500E-04  1.11741500E-04  1.11741500E-04  1.11741500E-04  1.11741500E-04  1.11741500E-04  1.11741500E-04  1.11741500E-04  1.11992800E-04  1.11741500E-04  1.11978000E-04  1.12013500E-04  1.11741500E-04  1.11741500E-04  1.11741500E-04  1.11741500E-04
    1.11741500E-04  1.11741500E-04  1.11741500E-04  1.11741500E-04  1.11741500E-04  1.11741500E-04  1.11741500E-04  1.11741500E-04  1.11741500E-04  1.11741500E-04  1.11741500E-04  1.11741500E-04  1.11741500E-04  1.11741500E-04  1.11741500E-04  1.11741500E-04  1.11741500E-04  1.11741500E-04  1.11741500E-04  1.11741500E-04
    1.11741500E-04  1.11741500E-04  1.11741500E-04  1.11741500E-04  1.11741500E-04  1.11741500E-04  1.11741500E-04  1.11741500E-04  1.11741500E-04  1.11741500E-04  1.11741500E-04  1.11741500E-04  1.11741500E-04  1.11741500E-04  1.11741500E-04  1.11741500E-04  1.11741500E-04  1.11741500E-04  1.11741500E-04  1.11741500E-04
    1.11741500E-04  1.11741500E-04  1.11741500E-04  1.11741500E-04  1.11741500E-04  1.11741500E-04  1.11741500E-04  1.11741500E-04  1.11741500E-04  1.11741500E-04  1.14155100E-04  1.13454700E-04  1.12566700E-04  1.13125300E-04  1.12182100E-04  1.12187800E-04  1.11744800E-04  1.11797100E-04  1.11741500E-04  1.11791900E-04
    1.11745700E-04  1.11748700E-04  1.11800600E-04  1.11741700E-04  1.11741500E-04  1.11749600E-04  1.11808900E-04  1.11741500E-04  1.11741500E-04  1.11741500E-04  1.11914700E-04  1.11906100E-04  1.12335200E-04  1.12472300E-04  1.13841500E-04  1.11753400E-04  1.11741500E-04  1.11892100E-04  1.11741500E-04  1.11741500E-04
    1.12142000E-04  1.12020600E-04  1.11982800E-04  1.12614900E-04  1.12704500E-04  1.11866500E-04  1.12122000E-04  1.11779300E-04  1.11741500E-04  1.12656000E-04  1.16708600E-04  1.12314300E-04  1.16146500E-04  1.11794400E-04  1.11741500E-04  1.12705800E-04  1.12518900E-04  1.11828700E-04  1.12266700E-04  1.11811000E-04
    1.11815900E-04  1.13410100E-04  1.17210000E-04  1.12512300E-04  1.16040800E-04  1.11822500E-04  1.11789700E-04  1.12517600E-04  1.12174900E-04  1.11942400E-04  1.14248900E-04  1.11763700E-04  1.12093300E-04  1.13194900E-04  1.13360000E-04  1.13749600E-04  1.15857500E-04  1.17639400E-04  1.16383700E-04  1.18752500E-04
    1.21820200E-04  1.21123400E-04  1.25272300E-04  1.14583700E-04  1.15654400E-04  1.20198800E-04  1.23925400E-04  1.13984100E-04  1.13800600E-04  1.18672600E-04  1.19569900E-04  1.13382400E-04  1.12643400E-04  1.20838200E-04  1.23754300E-04  1.24591000E-04  1.27148900E-04  1.31291900E-04  1.35414200E-04  1.30876800E-04
    1.36993600E-04  1.41288800E-04  1.49883100E-04  1.26414900E-04  1.33672500E-04  1.31554300E-04  1.41305500E-04  1.37733100E-04  1.43534100E-04  1.43743400E-04  1.51030900E-04  1.51368000E-04  1.62298900E-04  1.60458200E-04  1.73196600E-04  1.49051100E-04  1.57465500E-04  1.53345500E-04  1.63004700E-04  1.68589100E-04
    1.82321600E-04  1.74660600E-04  1.89317800E-04  1.23541900E-04  1.32454700E-04  1.25456500E-04  1.38629000E-04  1.41656900E-04  1.49370600E-04  1.52327000E-04  1.64659000E-04  1.22681700E-04  1.29816300E-04  1.22106900E-04  1.30637900E-04  1.38681400E-04  1.48040100E-04  1.41343600E-04  1.52675800E-04  1.21085500E-04
    1.31501200E-04  1.19550100E-04  1.33028200E-04  1.44413800E-04  1.58405100E-04  1.48869300E-04  1.65887300E-04  1.57581800E-04  1.66722000E-04  1.64494300E-04  1.76241100E-04  1.75520000E-04  1.83918700E-04  1.87621200E-04  1.97666400E-04  1.72960000E-04  1.87711600E-04  1.83544300E-04  2.01639300E-04  2.01741000E-04
    2.14497800E-04  2.19029700E-04  2.35165700E-04  1.54685100E-04  1.56684600E-04  1.73139700E-04  1.77168900E-04  1.52593400E-04  1.46106100E-04  1.71460300E-04  1.59858100E-04  1.90270200E-04  1.94644200E-04  2.05946000E-04  2.14786700E-04  1.98523000E-04  1.98012200E-04  2.18295000E-04  2.17149900E-04  2.25282600E-04
    2.36860400E-04  2.49196700E-04  2.64407100E-04  2.41625300E-04  2.42582000E-04  2.71528400E-04  2.73729600E-04  1.94524900E-04  1.88296800E-04  2.13367400E-04  2.06024000E-04  1.79547700E-04  1.69431800E-04  1.95355700E-04  1.82268000E-04  2.37691100E-04  2.29280100E-04  2.70612600E-04  2.60210200E-04  2.16459900E-04
    2.00248500E-04  2.45215400E-04  2.24937400E-04  1.20218900E-04  1.37470000E-04  1.32414200E-04  1.48151700E-04  1.56071000E-04  1.75766700E-04  1.67836600E-04  1.89634600E-04  1.47423300E-04  1.63126700E-04  1.62622100E-04  1.79374000E-04  1.82700700E-04  2.06508100E-04  2.00493800E-04  2.24886100E-04  1.96991900E-04
    2.18804500E-04  2.13471600E-04  2.38471200E-04  2.40211500E-04  2.60539400E-04  2.64772500E-04  2.91220100E-04  2.33250600E-04  2.62473600E-04  2.55162000E-04  2.89155900E-04  2.93661300E-04  3.33629700E-04  3.26906400E-04  3.75356500E-04  1.76847000E-04  1.95227200E-04  1.89404900E-04  2.09877100E-04  2.18247200E-04
    2.46173800E-04  2.34971300E-04  2.65722200E-04  1.99863500E-04  2.22197100E-04  2.07756200E-04  2.30949700E-04  2.49294100E-04  2.82598300E-04  2.60076600E-04  3.00230100E-04  2.78438600E-04  3.00145300E-04  3.20442200E-04  3.13417100E-04  3.35331800E-04  3.02868600E-04  3.27476000E-04  3.49897600E-04  3.41822100E-04
    3.65706300E-04  3.42102500E-04  3.65108000E-04  3.58969100E-04  3.84349300E-04  3.96167700E-04  4.22507500E-04  4.17187000E-04  4.46952300E-04  3.75575600E-04  4.03455700E-04  3.92044000E-04  4.24760000E-04  4.38642700E-04  4.72117500E-04  4.59378800E-04  4.96873500E-04  3.23574600E-04  3.54382300E-04  3.80965300E-04
    3.69527600E-04  3.97230100E-04  3.44356300E-04  3.79624000E-04  4.09129600E-04  3.87342900E-04  4.17869100E-04  4.10136100E-04  4.41933400E-04  4.27342900E-04  4.59901600E-04  4.78001000E-04  5.19712000E-04  5.00602000E-04  5.41697000E-04  4.42104700E-04  4.78959300E-04  4.52290100E-04  4.91040800E-04  5.20232000E-04
    5.66535000E-04  5.34877500E-04  5.84737000E-04  2.83473200E-04  2.98752100E-04  3.20685000E-04  3.41450000E-04  3.09357800E-04  3.14167400E-04  3.57091400E-04  3.66116600E-04  3.66017500E-04  3.94191600E-04  4.18712200E-04  4.58658500E-04  4.16971500E-04  4.32478000E-04  4.91297100E-04  5.15584500E-04  3.12475100E-04
    3.03102500E-04  3.67225100E-04  3.58783100E-04  2.84988500E-04  2.61085400E-04  3.41343800E-04  3.19999900E-04  4.38422400E-04  4.34554100E-04  5.31089000E-04  5.35853000E-04  4.25703200E-04  4.10931000E-04  5.39820500E-04  5.35187000E-04  4.48813700E-04  4.76080900E-04  4.77865300E-04  5.09383500E-04  5.02797500E-04
    5.27085000E-04  5.40553000E-04  5.70712500E-04  5.07585500E-04  5.44284000E-04  5.36363500E-04  5.78711500E-04  5.80902000E-04  6.15338500E-04  6.22286500E-04  6.64529000E-04  5.47372000E-04  5.66598000E-04  5.95443000E-04  6.18386000E-04  5.83792500E-04  5.98691500E-04  6.39183500E-04  6.57756000E-04  6.47821000E-04
    6.74847500E-04  7.04102500E-04  7.36011000E-04  6.99624000E-04  7.22242000E-04  7.64971000E-04  7.91831500E-04  5.65138500E-04  6.14298500E-04  5.91602000E-04  6.47751000E-04  6.65789000E-04  7.16932000E-04  7.08722500E-04  7.71463000E-04  6.17947000E-04  6.77058500E-04  6.41766500E-04  7.07307000E-04  7.47866500E-04
    8.24391500E-04  7.82223500E-04  8.70718000E-04  7.63477500E-04  8.01783500E-04  8.27128500E-04  8.71959000E-04  8.34857000E-04  8.65844500E-04  9.08567500E-04  9.43084500E-04  8.94642500E-04  9.46136500E-04  9.66814000E-04       0.00102302  9.84689000E-04       0.00101775       0.00104963       0.00106961  6.11180000E-04
    6.21090500E-04  6.74081000E-04  6.88096500E-04  6.28178500E-04  6.35891500E-04  6.99612000E-04  7.11787500E-04  7.42902000E-04  7.61744000E-04  8.17181500E-04  8.41502500E-04  7.78709500E-04  7.95448000E-04  8.64971500E-04  8.87336000E-04  6.43960500E-04  6.50175000E-04  7.25171000E-04  7.37064500E-04  6.54329000E-04
    6.56269000E-04  7.47083000E-04  7.54848000E-04  8.15450500E-04  8.34580500E-04  9.14637000E-04  9.42941000E-04  8.52168000E-04  8.67431500E-04  9.70309500E-04  9.95268500E-04  8.95995500E-04  9.26293500E-04  9.77831000E-04       0.00101363  9.57255000E-04  9.88850500E-04       0.00105212       0.00109510       0.00105034
         0.00108481       0.00109576       0.00113062       0.00112687       0.00117829       0.00117606       0.00123420       0.00102199       0.00106184       0.00114078       0.00118998       0.00110191       0.00113964       0.00124656       0.00130159       0.00124062       0.00131479       0.00130774       0.00140001       0.00140163
         0.00148084       0.00151459       0.00165171  1.39510700E-04  1.37807100E-04  1.44797800E-04  1.38256900E-04  1.45548300E-04  1.58084700E-04  1.47469600E-04  1.69400700E-04  1.57706500E-04  1.45953500E-04  1.66958600E-04  1.51492200E-04  1.38916500E-04  1.35668600E-04  1.38789900E-04  1.33191400E-04  1.80586700E-04
    1.59595000E-04  2.00828000E-04  1.73683700E-04  1.40266500E-04  1.28936400E-04  1.46208700E-04  1.24005300E-04  1.41794100E-04  1.51673500E-04  1.38834000E-04  1.54511600E-04  1.71538500E-04  1.96153600E-04  1.81338200E-04  2.13718200E-04  1.33616600E-04  1.58219600E-04  1.29843100E-04  1.68797300E-04  1.95034000E-04
    2.36276100E-04  2.18032700E-04  2.72149400E-04  1.75260600E-04  1.94008900E-04  2.01855900E-04  2.31945100E-04  2.04799000E-04  2.05301100E-04  2.49354200E-04  2.48723400E-04  2.19398100E-04  2.43846300E-04  2.44186800E-04  2.75686900E-04  2.65927200E-04  2.83896200E-04  3.04005900E-04  3.26963400E-04  2.81555000E-04
    3.18970300E-04  3.26199700E-04  3.78379000E-04  3.55276600E-04  3.84571500E-04  4.24477100E-04  4.62691700E-04  2.96358000E-04  3.02679700E-04  3.42813600E-04  3.50698200E-04  3.01321500E-04  2.94436600E-04  3.49961300E-04  3.39427100E-04  4.04705700E-04  4.14541300E-04  4.88153700E-04  5.00407000E-04  4.13266200E-04
    3.99270900E-04  4.98772000E-04  4.89621500E-04  2.32498100E-04  2.01476000E-04  2.94347700E-04  2.61721700E-04  1.67194900E-04  1.31171400E-04  2.26257300E-04  1.98943100E-04  3.86378700E-04  3.58552700E-04  5.23628000E-04  5.02135000E-04  3.28480100E-04  3.17667600E-04  4.84719800E-04  4.92914600E-04  1.37853700E-04
    1.93478000E-04  2.11440100E-04  2.66262100E-04  2.58313300E-04  3.28046600E-04  3.40381100E-04  4.20683600E-04  3.38594200E-04  3.94703100E-04  5.26497000E-04  5.88463000E-04  4.77368500E-04  5.69904000E-04  6.77507500E-04  7.86920500E-04  6.55990500E-04  6.53735500E-04  7.60147000E-04  7.63108000E-04  6.48919000E-04
    6.44478000E-04  7.66208000E-04  7.63006500E-04  8.79743500E-04  8.88975000E-04       0.00101637       0.00103292  8.97930000E-04  9.03208000E-04       0.00104798       0.00105835  6.40385000E-04  6.45079000E-04  7.63822500E-04  7.72716000E-04  6.55912000E-04  6.74039500E-04  7.89031500E-04  8.11615000E-04  9.05352500E-04
    9.17549500E-04       0.00106940       0.00108271  9.39825000E-04  9.66937000E-04       0.00110786       0.00114067       0.00117191       0.00119672       0.00134871       0.00138245       0.00121729       0.00123170       0.00140620       0.00142184       0.00154966       0.00159231       0.00177733       0.00182362       0.00160904
         0.00160273       0.00178298       0.00172659       0.00124713       0.00126728       0.00143440       0.00144851       0.00128893       0.00133039       0.00147145       0.00151422       0.00158973       0.00159264       0.00169362       0.00169026       0.00161754       0.00167330       0.00171740       0.00178290  6.97859500E-04
    7.26708000E-04  8.41988500E-04  8.76952500E-04  7.63346000E-04  8.13772500E-04  9.25488500E-04  9.76235500E-04       0.00100465       0.00104875       0.00119088       0.00124946       0.00110618       0.00116407       0.00131151       0.00137945  8.64450000E-04  9.19200000E-04       0.00103183       0.00109101  9.77011500E-04
         0.00103706       0.00115278       0.00121654       0.00122607       0.00129049       0.00145005       0.00152063       0.00135631       0.00142340       0.00159017       0.00165946       0.00139116       0.00146380       0.00159038       0.00168655       0.00154200       0.00162455       0.00179661       0.00190116       0.00175603
         0.00187408       0.00187933       0.00202061       0.00204044       0.00220494       0.00221428       0.00247403       0.00170718       0.00178495       0.00200170       0.00208752       0.00185677       0.00192570       0.00215771       0.00222105       0.00233890       0.00243279       0.00272362       0.00282060       0.00249131
         0.00251271       0.00276486       0.00269133  3.97759600E-04  4.63874900E-04  5.03856500E-04  5.86074000E-04  5.22051000E-04  5.68648000E-04  6.58375500E-04  7.16349000E-04  6.66760500E-04  7.60356000E-04  8.91993000E-04       0.00100486  8.47133500E-04  9.18416000E-04       0.00111142       0.00119903  6.00503000E-04
    6.15644500E-04  7.53588000E-04  7.72370000E-04  6.14529000E-04  5.96283000E-04  7.68558500E-04  7.45078500E-04  9.67656500E-04  9.91098500E-04       0.00126010       0.00128904  9.88170500E-04  9.56662500E-04       0.00128443       0.00124423       0.00109870       0.00115347       0.00128200       0.00134901       0.00121575
         0.00128007       0.00140773       0.00147747       0.00149220       0.00156329       0.00173039       0.00180482       0.00163762       0.00170278       0.00188457       0.00196796       0.00134146       0.00139881       0.00154517       0.00160943       0.00145070       0.00149555       0.00166828       0.00171942       0.00177811
         0.00185128       0.00204123       0.00212645       0.00191942       0.00197903       0.00220772       0.00227946       0.00199635       0.00207264       0.00228730       0.00235870       0.00215636       0.00224815       0.00243714       0.00253890       0.00251703       0.00255081       0.00266029       0.00267447       0.00261974
         0.00272745       0.00273433       0.00284254       0.00234681       0.00243572       0.00265798       0.00279064       0.00253624       0.00262646       0.00290608       0.00302585       0.00287733       0.00307302       0.00300447       0.00322840       0.00329902       0.00348052       0.00352818       0.00390362       0.00153190
         0.00155870       0.00176066       0.00179051       0.00157530       0.00158159       0.00180819       0.00181415       0.00202660       0.00205980       0.00233577       0.00237260       0.00207777       0.00208171       0.00238905       0.00238798       0.00157765       0.00156448       0.00180827       0.00179251       0.00153835
         0.00150816       0.00176801       0.00173839       0.00207332       0.00205381       0.00237396       0.00235043       0.00202603       0.00199396       0.00232814       0.00229032       0.00269576       0.00273634       0.00311638       0.00316031       0.00274740       0.00273568       0.00315769       0.00312509       0.00361021
         0.00365530       0.00419158       0.00422853       0.00362049       0.00356016       0.00406939       0.00385948       0.00271020       0.00268891       0.00309051       0.00304383       0.00265525       0.00261568       0.00300233       0.00296817       0.00344998       0.00335920       0.00369852       0.00358940       0.00329727
         0.00326303       0.00352560       0.00350164  1.95356400E-04  1.80606600E-04  2.31831500E-04  2.05721600E-04  1.64097500E-04  1.51787700E-04  1.75134500E-04  1.51699300E-04  2.81571700E-04  2.66383500E-04  3.25985700E-04  3.02049300E-04  2.44888500E-04  2.20841400E-04  2.73853200E-04  2.42581100E-04  3.81045800E-04
    3.50373300E-04  4.58806100E-04  4.19959200E-04  3.13822300E-04  2.72859500E-04  3.70220400E-04  3.18743900E-04  1.96646000E-04  1.73238900E-04  2.11372200E-04  1.81288300E-04  1.55664700E-04  1.45735400E-04  1.56363900E-04  1.42384000E-04  2.28869800E-04  1.91058400E-04  2.64985000E-04  2.10436000E-04  1.57890700E-04
    1.36896200E-04  1.63763500E-04  1.30589500E-04  1.46871000E-04  1.55283700E-04  1.47895000E-04  1.62780600E-04  1.66837000E-04  1.75693300E-04  1.82891200E-04  2.03115900E-04  1.43220400E-04  1.50761500E-04  1.39433400E-04  1.49818200E-04  1.62957900E-04  1.76228000E-04  1.65716200E-04  1.85327200E-04  1.34008500E-04
    1.49231800E-04  1.27834300E-04  1.55679700E-04  1.74195000E-04  2.04112700E-04  1.92949200E-04  2.32021000E-04  1.93802000E-04  2.10390300E-04  2.10657700E-04  2.33441400E-04  2.25703400E-04  2.38416900E-04  2.53204600E-04  2.69073100E-04  2.36063500E-04  2.64748900E-04  2.70402600E-04  3.05794600E-04  2.89461200E-04
    3.09115100E-04  3.36047800E-04  3.61902800E-04  5.61342000E-04  5.12752000E-04  7.07466500E-04  6.46305000E-04  4.53974500E-04  3.88581800E-04  5.72387000E-04  4.90403000E-04  9.06404500E-04  8.30073500E-04       0.00118304       0.00108881  7.37514500E-04  6.35344000E-04  9.72952000E-04  8.44123000E-04  3.20368500E-04
    2.51877500E-04  4.05654000E-04  3.22474100E-04  1.90338400E-04  1.36570300E-04  2.49198200E-04  2.00881300E-04  5.32899500E-04  4.33388500E-04  7.14067000E-04  5.93918500E-04  3.55643400E-04  3.09813200E-04  5.07685000E-04  4.56213200E-04       0.00147683       0.00143023       0.00169670       0.00164672       0.00137585
         0.00131391       0.00158788       0.00151979       0.00195025       0.00189812       0.00224019       0.00218839       0.00183599       0.00176223       0.00212563       0.00204804       0.00124507       0.00117056       0.00144269       0.00135779       0.00109224       0.00101233       0.00126750       0.00117482       0.00167612
         0.00157862       0.00195270       0.00183971       0.00147292       0.00136343       0.00171352       0.00158118       0.00257394       0.00252031       0.00293614       0.00289983       0.00246221       0.00238536       0.00284914       0.00278310       0.00325367       0.00326609       0.00351363       0.00355882       0.00327380
         0.00324729       0.00363568       0.00372827       0.00228207       0.00214977       0.00267712       0.00252024       0.00199516       0.00183079       0.00232379       0.00211321       0.00315485       0.00296532       0.00373552       0.00349278       0.00269831       0.00241752       0.00309058       0.00271910  9.33140500E-04
    8.56763500E-04       0.00108299  9.94846000E-04  7.83835500E-04  7.23858000E-04  9.12524500E-04  8.43480000E-04       0.00125492       0.00115144       0.00145021       0.00132653       0.00105579  9.74342500E-04       0.00121687       0.00111772  6.74168500E-04  6.33076000E-04  7.85758000E-04  7.38977000E-04  6.01519500E-04
    5.81489000E-04  7.02987500E-04  6.78769000E-04  9.07261000E-04  8.53072500E-04       0.00103689  9.73468500E-04  8.11480000E-04  7.81867500E-04  9.24970500E-04  8.89000500E-04       0.00166918       0.00152369       0.00191364       0.00172655       0.00138853       0.00127052       0.00156939       0.00143421       0.00216295
         0.00194392       0.00241176       0.00215865       0.00175884       0.00160372       0.00194827       0.00177308       0.00117399       0.00109772       0.00131908       0.00122737       0.00104143  9.98165000E-04       0.00115579       0.00110644       0.00147753       0.00136688       0.00162568       0.00150362       0.00127850
         0.00121327       0.00140295       0.00132121  1.33095600E-04  1.77412400E-04  1.94615700E-04  2.27992100E-04  2.25324700E-04  2.74045800E-04  2.79991200E-04  3.37424700E-04  2.99293700E-04  3.22428900E-04  4.38739700E-04  4.54857800E-04  3.66824800E-04  4.28516900E-04  4.96496400E-04  5.57129000E-04  3.21283100E-04
    3.64592800E-04  3.93754500E-04  4.45603000E-04  4.01468000E-04  4.30061000E-04  4.89739500E-04  5.23643000E-04  4.95443300E-04  5.55207000E-04  6.34067500E-04  7.06315500E-04  6.07329000E-04  6.46940000E-04  7.67884500E-04  8.13287000E-04  5.69102500E-04  5.63755000E-04  6.63593500E-04  6.56251000E-04  5.70390000E-04
    5.84602000E-04  6.61627000E-04  6.75087000E-04  7.63478000E-04  7.55107500E-04  8.67082500E-04  8.57890000E-04  7.58851500E-04  7.71875000E-04  8.60137000E-04  8.73193500E-04  6.05256000E-04  6.31650000E-04  6.96040500E-04  7.23865500E-04  6.59972500E-04  7.02283500E-04  7.57808500E-04  8.01705500E-04  7.93696000E-04
    8.23775500E-04  8.96632000E-04  9.30013500E-04  8.62689000E-04  9.11597000E-04  9.78868500E-04       0.00103708  9.72002000E-04  9.62937000E-04       0.00107673       0.00106449  9.63069500E-04  9.76834500E-04       0.00106813       0.00108034       0.00117649       0.00116110       0.00126762       0.00125044       0.00116473
         0.00118480       0.00125710       0.00128920       0.00100284       0.00104288       0.00111166       0.00116409       0.00110147       0.00116754       0.00122795       0.00130278       0.00122487       0.00127972       0.00133257       0.00138531       0.00134763       0.00143028       0.00145591       0.00154414  7.46769000E-04