# File generated by Flopy version 3.3.5 on 04/08/2022 at 15:14:55.
BEGIN options
  auxiliary  fid
  BOUNDNAMES
  SAVE_FLOWS
END options

BEGIN dimensions
  MAXBOUND  794
END dimensions

BEGIN period  1
  1 22789      15.01655383       0.20540619      13.65685412       4.00000000  gajac
  1 22787      14.99503688       0.20540619      13.64002884       4.00000000  gajac
  1 22788      14.91817570       0.20540619      13.57992687       4.00000000  gajac
  1 22791      14.79692211       0.20540619      13.48511202       4.00000000  gajac
  1 17793      14.73664591       0.20540619      13.43797876       4.00000000  gajac
  1 17794      14.60859066       0.20540619      13.33784533       4.00000000  gajac
  1 17792      14.59894300       0.20540619      13.33030129       4.00000000  gajac
  1 17795      14.47931240       0.20540619      13.23675556       4.00000000  gajac
  1 12797      14.45396679       0.20540619      13.21693643       4.00000000  gajac
  1 12798      14.35849846       0.20540619      13.14228451       4.00000000  gajac
  1 12807      14.21732153       0.10270309      13.03189052       4.00000000  gajac
  1 12810      14.14815083       0.10270309      12.97780215       4.00000000  gajac
  1 12809      14.16480820       0.10270309      12.99082746       4.00000000  gajac
  1 12810      14.14466785       0.10270309      12.97507862       4.00000000  gajac
  1 17800      14.10216071       0.10270309      12.94183996       4.00000000  gajac
  1 17803      14.06259146       0.10270309      12.91089858       4.00000000  gajac
  1 17805      14.00545377       0.10270309      12.86621949       4.00000000  gajac
  1 17806      13.97860339       0.10270309      12.84522370       4.00000000  gajac
  1 17820      13.90161966       0.10270309      12.78502590       4.00000000  gajac
  1 17821      13.83044259       0.05135155      12.72936865       4.00000000  gajac
  1 17824      13.79799795       0.05135155      12.70399840       4.00000000  gajac
  1 17822      13.79254957       0.05135155      12.69973801       4.00000000  gajac
  1 17824      13.77786272       0.05135155      12.68825356       4.00000000  gajac
  1 17847      13.77865861       0.05135155      12.68887591       4.00000000  gajac
  1 17848      13.75104561       0.05135155      12.66728378       4.00000000  gajac
  1 17859      13.71853187       0.02567577      12.64185951       4.00000000  gajac
  1 17860      13.70552637       0.02567577      12.63168980       4.00000000  gajac
  1 17883      13.68308793       0.02567577      12.61414394       4.00000000  gajac
  1 17863      13.68878711       0.02567577      12.61860044       4.00000000  gajac
  1 17883      13.67550523       0.02567577      12.60821461       4.00000000  gajac
  1 17864      13.67275928       0.02567577      12.60606741       4.00000000  gajac
  1 17884      13.67416936       0.02567577      12.60717003       4.00000000  gajac
  1 12732       7.92517056       0.04932698       6.17831887      11.00000000  bussaguet_aval
  1 17656       7.94342003       0.04932698       6.29803538      11.00000000  bussaguet_aval
  1 17655       7.93586563       0.04932698       6.24847850      11.00000000  bussaguet_aval
  1 17656       7.94598950       0.04932698       6.31489111      11.00000000  bussaguet_aval
  1 17658       7.95967339       0.04932698       6.40465745      11.00000000  bussaguet_aval
  1 17667       8.00098391       0.04932698       6.67565448      11.00000000  bussaguet_aval
  1 17661       7.99488843       0.04932698       6.63566809      11.00000000  bussaguet_aval
  1 17667       8.00638284       0.04932698       6.71107146      11.00000000  bussaguet_aval
  1 17670       8.04412013       0.04932698       6.95862802      11.00000000  bussaguet_aval
  1 17669       8.03678830       0.04932698       6.91053127      11.00000000  bussaguet_aval
  1 26629      22.88671118       0.01997020      21.75671118      15.00000000  haillan4
  1 26601      22.28878519       0.01997020      21.15878519      15.00000000  haillan4
  1 26602      22.00607306       0.01997020      20.87607306      15.00000000  haillan4
  1 26601      21.91517972       0.01997020      20.78517972      15.00000000  haillan4
  1 26599      21.77960563       0.01997020      20.64960563      15.00000000  haillan4
  1 26600      21.70812273       0.01997020      20.57812273      15.00000000  haillan4
  1 26562      21.32561713       0.01997020      20.19561713      15.00000000  haillan4
  1 26565      21.22233584       0.01997020      20.09233584      15.00000000  haillan4
  1 26563      20.82138069       0.01997020      19.69138069      15.00000000  haillan4
  1 26564      20.44528430       0.01997020      19.31528430      15.00000000  haillan4
  1 26516      20.43911553       0.01997020      19.30911553      15.00000000  haillan4
  1 26519      19.87070685       0.01997020      18.74070685      15.00000000  haillan4
  1 26517      19.73799290       0.01997020      18.60799290      15.00000000  haillan4
  1 26519      19.74808806       0.01997020      18.61808806      15.00000000  haillan4
  1 26517      19.89639952       0.01997020      18.76639952      15.00000000  haillan4
  1 26457      19.51318879       0.01997020      18.38318879      15.00000000  haillan4
  1 26458      18.88437126       0.01997020      17.75437126      15.00000000  haillan4
  1 26611      21.38634217       0.02063800      20.36195296       2.00000000  haillan5
  1 26573      21.16836997       0.02063800      20.13501071       2.00000000  haillan5
  1 26571      20.80777912       0.02063800      19.75958073       2.00000000  haillan5
  1 26523      20.19754375       0.02063800      19.12423279       2.00000000  haillan5
  1 26520      20.27885751       0.02063800      19.20889280       2.00000000  haillan5
  1 26518      20.03569561       0.02063800      18.95572423       2.00000000  haillan5
  1 26458      19.52641483       0.02063800      18.42548540       2.00000000  haillan5
  1 26550      22.11678048       0.02290665      21.12158962       5.00000000  haillan2
  1 26553      21.98416276       0.02290665      20.98351057       5.00000000  haillan2
  1 26552      21.38851568       0.02290665      20.36333412       5.00000000  haillan2
  1 26554      21.33897367       0.02290665      20.31175192       5.00000000  haillan2
  1 26552      21.32106572       0.02290665      20.29310650       5.00000000  haillan2
  1 26507      20.78356496       0.02290665      19.73347090       5.00000000  haillan2
  1 26555      20.94904995       0.02290665      19.90577073       5.00000000  haillan2
  1 26507      20.54693694       0.02290665      19.48709829       5.00000000  haillan2
  1 26508      20.58152902       0.02290665      19.52311491       5.00000000  haillan2
  1 26506      20.21366032       0.02290665      19.14009699       5.00000000  haillan2
  1 26509      19.72282719       0.02290665      18.62905085       5.00000000  haillan2
  1 26449      19.75861114       0.02290665      18.66630841       5.00000000  haillan2
  1 26447      19.09196954       0.02290665      17.97221382       5.00000000  haillan2
  1 26448      19.01145332       0.02290665      17.88838185       5.00000000  haillan2
  1 26380      18.73175203       0.02290665      17.59716218       5.00000000  haillan2
  1 26378      18.18186178       0.02290665      17.02462687       5.00000000  haillan2
  1 26381      17.77349057       0.02290665      16.59943851       5.00000000  haillan2
  1 26289      17.56273471       0.02290665      16.38000351       5.00000000  haillan2
  1 26381      17.62905767       0.02290665      16.44905771       5.00000000  haillan2
  1 26289      17.55355139       0.02290665      16.37044200       5.00000000  haillan2
  1 26284      17.03460432       0.01145332      15.83012416       5.00000000  haillan2
  1 26285      16.73998601       0.01145332      15.52337316       5.00000000  haillan2
  1 26287      16.75682994       0.01145332      15.54091074       5.00000000  haillan2
  1 26285      16.82073722       0.01145332      15.60744979       5.00000000  haillan2
  1 26090      16.62425922       0.01145332      15.40288062       5.00000000  haillan2
  1 26088      16.37277527       0.01145332      15.14104030       5.00000000  haillan2
  1 26085      16.35308330       0.01145332      15.12053739       5.00000000  haillan2
  1 26067      16.14884130       0.00572666      14.90788449       5.00000000  haillan2
  1 26065      16.05134956       0.00572666      14.80637794       5.00000000  haillan2
  1 26070      15.91018768       0.00572666      14.65940287       5.00000000  haillan2
  1 26076      15.89579703       0.00572666      14.64441960       5.00000000  haillan2
  1 26070      15.88217714       0.00572666      14.63023882       5.00000000  haillan2
  1 26068      15.80264787       0.00572666      14.54743445       5.00000000  haillan2
  1 25161      15.64713294       0.00286333      14.38551526       5.00000000  haillan2
  1 26069      15.76121482       0.00572666      14.50429515       5.00000000  haillan2
  1 25160      15.66658993       0.00286333      14.40577351       5.00000000  haillan2
  1 25161      15.66126980       0.00286333      14.40023429       5.00000000  haillan2
  1 25159      15.62881329       0.00286333      14.36644119       5.00000000  haillan2
  1 26458      18.83756329       0.01741803      17.70829172       3.00000000  haillan3
  1 26456      19.02189235       0.01741803      17.90026576       3.00000000  haillan3
  1 26388      18.51839990       0.01741803      17.37589114       3.00000000  haillan3
  1 26386      18.11269914       0.01741803      16.95336408       3.00000000  haillan3
  1 26300      17.60098959       0.01741803      16.42043156       3.00000000  haillan3
  1 26299      17.27947620       0.01741803      16.08558351       3.00000000  haillan3
  1 26294      17.08673395       0.00870901      15.88484734       3.00000000  haillan3
  1 26292      16.89926735       0.00870901      15.68960563       3.00000000  haillan3
  1 26127      16.67020434       0.00870901      15.45104231       3.00000000  haillan3
  1 26126      16.49044468       0.00870901      15.26382718       3.00000000  haillan3
  1 26124      16.46215171       0.00870901      15.23436076       3.00000000  haillan3
  1 26103      16.22989903       0.00435451      14.99247549       3.00000000  haillan3
  1 26101      16.11278474       0.00435451      14.87050393       3.00000000  haillan3
  1 26100      16.00000802       0.00435451      14.75304983       3.00000000  haillan3
  1 26094      16.02390698       0.00435451      14.77793998       3.00000000  haillan3
  1 26075      15.88952711       0.00435451      14.63798676       3.00000000  haillan3
  1 26073      15.84796739       0.00435451      14.59470336       3.00000000  haillan3
  1 26072      15.76057625       0.00435451      14.50368771       3.00000000  haillan3
  1 25172      15.67871762       0.00217725      14.41843402       3.00000000  haillan3
  1 25173      15.68268824       0.00217725      14.42256932       3.00000000  haillan3
  1 25172      15.65505390       0.00217725      14.39378885       3.00000000  haillan3
  1 25159      15.60177052       0.00217725      14.33829556       3.00000000  haillan3
  1 25170      15.61627925       0.00217725      14.35340604       3.00000000  haillan3
  1 25159      15.60479082       0.00217725      14.34144113       3.00000000  haillan3
  1 25159      15.58957404       0.00106076      14.32479983      10.00000000  haillan1
  1 25153      15.53369375       0.00106076      14.26840609      10.00000000  haillan1
  1 25152      15.51795311       0.00106076      14.25252083      10.00000000  haillan1
  1 25150      15.47109145       0.00106076      14.20522859      10.00000000  haillan1
  1 25128      15.29065619       0.00106076      14.02313542      10.00000000  haillan1
  1 25123      15.15407876       0.00106076      13.88530307      10.00000000  haillan1
  1 25125      15.27447567       0.00106076      14.00680623      10.00000000  haillan1
  1 25123      15.19844285       0.00106076      13.93007479      10.00000000  haillan1
  1 25116      15.03310064       0.00106076      13.76321336      10.00000000  haillan1
  1 25122      15.04998939       0.00106076      13.78025728      10.00000000  haillan1
  1 25116      15.08436727       0.00106076      13.81495104      10.00000000  haillan1
  1 25114      14.91994812       0.00106076      13.64902115      10.00000000  haillan1
  1 25071      14.90530168       0.00106076      13.63424014      10.00000000  haillan1
  1 24817      14.83983790       0.00106076      13.56817485      10.00000000  haillan1
  1 24811      14.65931421  5.30379461E-04      13.38599244      10.00000000  haillan1
  1 24816      14.69086573       0.00106076      13.41783387      10.00000000  haillan1
  1 24811      14.66736649  5.30379461E-04      13.39411871      10.00000000  haillan1
  1 24809      14.61389024  5.30379461E-04      13.34015110      10.00000000  haillan1
  1 24792      14.54376827  5.30379461E-04      13.26938482      10.00000000  haillan1
  1 24808      14.57391069  5.30379461E-04      13.29980420      10.00000000  haillan1
  1 24792      14.56239081  5.30379461E-04      13.28817848      10.00000000  haillan1
  1 24790      14.51597026  5.30379461E-04      13.24133139      10.00000000  haillan1
  1 24784      14.46237352  5.30379461E-04      13.18724219      10.00000000  haillan1
  1 24782      14.41009194  5.30379461E-04      13.13448023      10.00000000  haillan1
  1 24697      14.33677602  5.30379461E-04      13.06049066      10.00000000  haillan1
  1 24708      14.33527503  5.30379461E-04      13.05897587      10.00000000  haillan1
  1 24697      14.32417788  5.30379461E-04      13.04777676      10.00000000  haillan1
  1 24695      14.30545935  5.30379461E-04      13.02888624      10.00000000  haillan1
  1 24689      14.25867121  5.30379461E-04      12.98166819      10.00000000  haillan1
  1 24686      14.17643918  5.30379461E-04      12.89868058      10.00000000  haillan1
  1 24688      14.16735765  5.30379461E-04      12.88951561      10.00000000  haillan1
  1 24686      14.16383491  5.30379461E-04      12.88596050      10.00000000  haillan1
  1 24659      14.05061704  5.30379461E-04      12.77170234      10.00000000  haillan1
  1 24664      14.13119900  5.30379461E-04      12.85302472      10.00000000  haillan1
  1 24662      14.05015959  5.30379461E-04      12.77124069      10.00000000  haillan1
  1 24659      14.05447674  5.30379461E-04      12.77559750      10.00000000  haillan1
  1 24653      14.02141401  5.30379461E-04      12.74223099      10.00000000  haillan1
  1 24651      13.96852183  5.30379461E-04      12.68885281      10.00000000  haillan1
  1 21494      13.91939540  5.30379461E-04      12.63927499      10.00000000  haillan1
  1 21495      13.83573793  5.30379461E-04      12.55484885      10.00000000  haillan1
  1 21492      13.84100673  5.30379461E-04      12.56016605      10.00000000  haillan1
  1 21495      13.81649865  5.30379461E-04      12.53543279      10.00000000  haillan1
  1 21489      13.80340630  5.30379461E-04      12.52222014      10.00000000  haillan1
  1 21488      13.70892738  5.30379461E-04      12.42687311      10.00000000  haillan1
  1 21487      13.72716395  5.30379461E-04      12.44527725      10.00000000  haillan1
  1 21488      13.71368768  5.30379461E-04      12.43167715      10.00000000  haillan1
  1 21466      13.69728497  5.30379461E-04      12.41512373      10.00000000  haillan1
  1 21477      13.62792473  5.30379461E-04      12.34512618      10.00000000  haillan1
  1 21476      13.55788649  5.30379461E-04      12.27444440      10.00000000  haillan1
  1 21475      13.58317263  5.30379461E-04      12.29996288      10.00000000  haillan1
  1 21476      13.51387161  5.30379461E-04      12.23002510      10.00000000  haillan1
  1 21470      13.50481663  5.30379461E-04      12.22088692      10.00000000  haillan1
  1 21473      13.49259221  5.30379461E-04      12.20855018      10.00000000  haillan1
  1 21471      13.45371339  5.30379461E-04      12.16931412      10.00000000  haillan1
  1 21386      13.35102903  5.30379461E-04      12.06568626      10.00000000  haillan1
  1 21472      13.38586435  5.30379461E-04      12.10084166      10.00000000  haillan1
  1 21386      13.36488310  5.30379461E-04      12.07966763      10.00000000  haillan1
  1 21557      13.35125571  5.30379461E-04      12.06591502      10.00000000  haillan1
  1 21555      13.28885109  5.30379461E-04      12.00293701      10.00000000  haillan1
  1 21549      13.23232180  5.30379461E-04      11.94588831      10.00000000  haillan1
  1 21550      13.18157594  5.30379461E-04      11.89467617      10.00000000  haillan1
  1 21548      13.14657724  5.30379461E-04      11.85935589      10.00000000  haillan1
  1 21529      13.05310102  5.30379461E-04      11.76502078      10.00000000  haillan1
  1 21526      13.06225198  5.30379461E-04      11.77425582      10.00000000  haillan1
  1 21529      13.07528510  5.30379461E-04      11.78740870      10.00000000  haillan1
  1 21527      13.02985092  5.30379461E-04      11.74155705      10.00000000  haillan1
  1 21519      12.91180944  5.30379461E-04      11.62243097      10.00000000  haillan1
  1 21521      12.97807376  5.30379461E-04      11.68930414      10.00000000  haillan1
  1 21519      12.89607453  5.30379461E-04      11.60655148      10.00000000  haillan1
  1 21169      12.74848695  5.30379461E-04      11.45760781      10.00000000  haillan1
  1 21177      12.87596324  5.30379461E-04      11.58625540      10.00000000  haillan1
  1 21175      12.82488655  5.30379461E-04      11.53470939      10.00000000  haillan1
  1 21169      12.77323804  5.30379461E-04      11.48258632      10.00000000  haillan1
  1 21145      12.65160643  5.30379461E-04      11.35983712      10.00000000  haillan1
  1 21167      12.72270660  5.30379461E-04      11.43159058      10.00000000  haillan1
  1 21145      12.65463088  5.30379461E-04      11.36288936      10.00000000  haillan1
  1 21137      12.54536053  5.30379461E-04      11.25261499      10.00000000  haillan1
  1 21143      12.62040821  5.30379461E-04      11.32835224      10.00000000  haillan1
  1 21137      12.56439559  5.30379461E-04      11.27182495      10.00000000  haillan1
  1 21049      12.45942604  5.30379461E-04      11.16589090      10.00000000  haillan1
  1 21135      12.51816700  5.30379461E-04      11.22517160      10.00000000  haillan1
  1 21049      12.41387749  5.30379461E-04      11.11992384      10.00000000  haillan1
  1 21047      12.41814358  5.30379461E-04      11.12422913      10.00000000  haillan1
  1 21042      12.35258995  5.30379461E-04      11.05807316      10.00000000  haillan1
  1 21041      12.33300554  5.30379461E-04      11.03830881      10.00000000  haillan1
  1 21042      12.27877778  5.30379461E-04      10.98358278      10.00000000  haillan1
  1 21029      12.21584016  5.30379461E-04      10.92006687      10.00000000  haillan1
  1 21040      12.27943944  5.30379461E-04      10.98425052      10.00000000  haillan1
  1 21051      12.24462453  5.30379461E-04      10.94911573      10.00000000  haillan1
  1 21029      12.21479252  5.30379461E-04      10.91900961      10.00000000  haillan1
  1 21022      12.09190702  5.30379461E-04      10.79499499      10.00000000  haillan1
  1 21027      12.18153580  5.30379461E-04      10.88544730      10.00000000  haillan1
  1 21021      12.11020486  5.30379461E-04      10.81346095      10.00000000  haillan1
  1 21022      12.06671074  5.30379461E-04      10.76956719      10.00000000  haillan1
  1 16702      12.01362250  5.30379461E-04      10.71599116      10.00000000  haillan1
  1 21020      12.07353567  5.30379461E-04      10.77645483      10.00000000  haillan1
  1 16702      11.95820415  5.30379461E-04      10.66006361      10.00000000  haillan1
  1 16698      11.87665829  5.30379461E-04      10.57776847      10.00000000  haillan1
  1 16705      11.93749247  5.30379461E-04      10.63916162      10.00000000  haillan1
  1 16697      11.86952907  5.30379461E-04      10.57057375      10.00000000  haillan1
  1 16703      11.96999360  5.30379461E-04      10.67196138      10.00000000  haillan1
  1 16698      11.84208232  5.30379461E-04      10.54287480      10.00000000  haillan1
  1 16696      11.82644338  5.30379461E-04      10.52709217      10.00000000  haillan1
  1 16715      11.70268792  5.30379461E-04      10.40219960      10.00000000  haillan1
  1 16739      11.76156774  5.30379461E-04      10.46162043      10.00000000  haillan1
  1 16717      11.77453552  5.30379461E-04      10.47470736      10.00000000  haillan1
  1 16715      11.69794396  5.30379461E-04      10.39741205      10.00000000  haillan1
  1 16710      11.62981310  5.30379461E-04      10.32865518      10.00000000  haillan1
  1 16709      11.65059013  5.30379461E-04      10.34962312      10.00000000  haillan1
  1 16710      11.58633532  5.30379461E-04      10.28477791      10.00000000  haillan1
  1 16625      11.53069641  5.30379461E-04      10.22862777      10.00000000  haillan1
  1 16708      11.60795168  5.30379461E-04      10.30659289      10.00000000  haillan1
  1 16711      11.53441316  5.30379461E-04      10.23237867      10.00000000  haillan1
  1 16625      11.49111713  5.30379461E-04      10.18868482      10.00000000  haillan1
  1 16635      11.38902908  5.30379461E-04      10.08565875      10.00000000  haillan1
  1 16626      11.45909591  5.30379461E-04      10.15636938      10.00000000  haillan1
  1 16624      11.46949055  5.30379461E-04      10.16685953      10.00000000  haillan1
  1 16635      11.38157516  5.30379461E-04      10.07813634      10.00000000  haillan1
  1 16628      11.29568152  5.30379461E-04       9.99145347      10.00000000  haillan1
  1 16629      11.38802842  5.30379461E-04      10.08464889      10.00000000  haillan1
  1 16630      11.33280815  5.30379461E-04      10.02892125      10.00000000  haillan1
  1 16628      11.28367356  5.30379461E-04       9.97933518      10.00000000  haillan1
  1 16609      11.23823529  5.30379461E-04       9.93347941      10.00000000  haillan1
  1 16631      11.23625439  5.30379461E-04       9.93148031      10.00000000  haillan1
  1 16609      11.21340251  5.30379461E-04       9.90841846      10.00000000  haillan1
  1 16607      11.19992419  5.30379461E-04       9.89481630      10.00000000  haillan1
  1 16602      11.11253976  5.30379461E-04       9.80662895      10.00000000  haillan1
  1 16601      11.11531711  5.30379461E-04       9.80943182      10.00000000  haillan1
  1 16602      11.11768603  5.30379461E-04       9.81182250      10.00000000  haillan1
  1 16600      11.08282620  5.30379461E-04       9.77664237      10.00000000  haillan1
  1 16941      10.99924021  5.30379461E-04       9.69228836      10.00000000  haillan1
  1 16258      11.00011834  5.30379461E-04       9.69317456      10.00000000  haillan1
  1 16941      10.99952611  5.30379461E-04       9.69257689      10.00000000  haillan1
  1 16939      10.96950622  5.30379461E-04       9.66228116      10.00000000  haillan1
  1 16932      10.83788840  5.30379461E-04       9.52945399      10.00000000  haillan1
  1 16933      10.90313572  5.30379461E-04       9.59530082      10.00000000  haillan1
  1 16934      10.86641751  5.30379461E-04       9.55824524      10.00000000  haillan1
  1 16932      10.84775208  5.30379461E-04       9.53940830      10.00000000  haillan1
  1 16913      10.77423398  5.30379461E-04       9.46521469      10.00000000  haillan1
  1 16910      10.78115694  5.30379461E-04       9.47220126      10.00000000  haillan1
  1 16913      10.73202234  5.30379461E-04       9.42261520      10.00000000  haillan1
  1 16912      10.69548793  5.30379461E-04       9.38574509      10.00000000  haillan1
  1 16911      10.69771390  5.30379461E-04       9.38799151      10.00000000  haillan1
  1 16912      10.69554920  5.30379461E-04       9.38580692      10.00000000  haillan1
  1 16906      10.63236448  5.30379461E-04       9.32204164      10.00000000  haillan1
  1 16917      10.63175182  5.30379461E-04       9.32142336      10.00000000  haillan1
  1 16915      10.57761391  5.30379461E-04       9.26678801      10.00000000  haillan1
  1 16916      10.55676336  5.30379461E-04       9.24574588      10.00000000  haillan1
  1 16919      10.50568871  5.30379461E-04       9.19420193      10.00000000  haillan1
  1 16920      10.45459363  5.30379461E-04       9.14263737      10.00000000  haillan1
  1 16963      10.39343066  5.30379461E-04       9.08091241      10.00000000  haillan1
  1 16878      10.33537178  5.30379461E-04       9.02232007      10.00000000  haillan1
  1 16877      10.33953781  5.30379461E-04       9.02652437      10.00000000  haillan1
  1 16878      10.30559695  5.30379461E-04       8.99227166      10.00000000  haillan1
  1 16881      10.27992688  5.30379461E-04       8.96636572      10.00000000  haillan1
  1 16879      10.23487663  5.30379461E-04       8.92090153      10.00000000  haillan1
  1 16880      10.23263024  5.30379461E-04       8.91863450      10.00000000  haillan1
  1 16891      10.17332564  5.30379461E-04       8.85878499      10.00000000  haillan1
  1 16892      10.11992291  5.30379461E-04       8.80489157      10.00000000  haillan1
  1 16889      10.03652071  5.30379461E-04       8.72072305      10.00000000  haillan1
  1 16895      10.05120391  5.30379461E-04       8.73554116      10.00000000  haillan1
  1 16889      10.01662998  5.30379461E-04       8.70064955      10.00000000  haillan1
  1 16888       9.95934713  5.30379461E-04       8.64284037      10.00000000  haillan1
  1 16890       9.98226027  5.30379461E-04       8.66596404      10.00000000  haillan1
  1 16888       9.96577996  5.30379461E-04       8.64933231      10.00000000  haillan1
  1 17059       9.91525669  5.30379461E-04       8.59834481      10.00000000  haillan1
  1 17037       9.90533175  5.30379461E-04       8.58832867      10.00000000  haillan1
  1 17035       9.84790595  5.30379461E-04       8.53037522      10.00000000  haillan1
  1 17030       9.78094321  5.30379461E-04       8.46279721      10.00000000  haillan1
  1 17036       9.78149460  5.30379461E-04       8.46335366      10.00000000  haillan1
  1 17030       9.75470134  5.30379461E-04       8.43631421      10.00000000  haillan1
  1 17031       9.69443692  5.30379461E-04       8.37549606      10.00000000  haillan1
  1 17033       9.71381711  5.30379461E-04       8.39505432      10.00000000  haillan1
  1 17031       9.65641172  5.30379461E-04       8.33712148      10.00000000  haillan1
  1 17032       9.67258571  5.30379461E-04       8.35344407      10.00000000  haillan1
  1 17045       9.57962615  5.30379461E-04       8.25963038      10.00000000  haillan1
  1 17043       9.60270267  5.30379461E-04       8.28291893      10.00000000  haillan1
  1 17045       9.57807411  5.30379461E-04       8.25806407      10.00000000  haillan1
  1 17046       9.54544024  5.30379461E-04       8.22513035      10.00000000  haillan1
  1 17055       9.47312702  5.30379461E-04       8.15215269      10.00000000  haillan1
  1 17052       9.50990649  5.30379461E-04       8.18927010      10.00000000  haillan1
  1 17055       9.46489708  5.30379461E-04       8.14384713      10.00000000  haillan1
  1 17056       9.43497930  5.30379461E-04       8.11365445      10.00000000  haillan1
  1 17093       9.41169857       0.00106076       8.09015981      10.00000000  haillan1
  1 17094       9.26000622       0.00106076       7.93707366      10.00000000  haillan1
  1 17092       9.27701749       0.00106076       7.95424124      10.00000000  haillan1
  1 17095       9.09920581       0.00106076       7.77479575      10.00000000  haillan1
  1 12600       9.09955297       0.00106076       7.77514611      10.00000000  haillan1
  1 12259       9.44614209       0.01294651       7.83008306       6.00000000  bussaguet_amont
  1 12257       9.42985966       0.01294651       7.82889888       6.00000000  bussaguet_amont
  1 12253       9.44318019       0.01294651       7.82986765       6.00000000  bussaguet_amont
  1 12256       9.44784755       0.01294651       7.83020709       6.00000000  bussaguet_amont
  1 12257       9.43482009       0.01294651       7.82925964       6.00000000  bussaguet_amont
  1 12269       9.40876166       0.01294651       7.82736448       6.00000000  bussaguet_amont
  1 12268       9.42392080       0.01294651       7.82846697       6.00000000  bussaguet_amont
  1 12269       9.40622150       0.01294651       7.82717975       6.00000000  bussaguet_amont
  1 12271       9.38804615       0.01294651       7.82585790       6.00000000  bussaguet_amont
  1 12267       9.39592875       0.01294651       7.82643118       6.00000000  bussaguet_amont
  1 12270       9.40103295       0.01294651       7.82680240       6.00000000  bussaguet_amont
  1 12271       9.37731117       0.01294651       7.82507718       6.00000000  bussaguet_amont
  1 12446       9.35390683       0.01294651       7.82337504       6.00000000  bussaguet_amont
  1 12442       9.37824388       0.01294651       7.82514501       6.00000000  bussaguet_amont
  1 12443       9.36682066       0.01294651       7.82431423       6.00000000  bussaguet_amont
  1 12446       9.34271495       0.01294651       7.82256109       6.00000000  bussaguet_amont
  1 12164       9.32358379       0.01294651       7.82116973       6.00000000  bussaguet_amont
  1 12447       9.34394226       0.01294651       7.82265035       6.00000000  bussaguet_amont
  1 12458       9.32929864       0.01294651       7.82158536       6.00000000  bussaguet_amont
  1 12164       9.32238571       0.01294651       7.82108260       6.00000000  bussaguet_amont
  1 12168       9.30752630       0.01294651       7.82000191       6.00000000  bussaguet_amont
  1 12165       9.32139847       0.01294651       7.82101080       6.00000000  bussaguet_amont
  1 12168       9.29931908       0.01294651       7.81940502       6.00000000  bussaguet_amont