# File generated by Flopy version 3.3.5 on 04/08/2022 at 15:14:55.
BEGIN options
  READASARRAYS
  SAVE_FLOWS
END options

BEGIN period  1
  recharge
    INTERNAL  FACTOR  1.0
    9.51293700E-09  9.51293700E-09  9.51293700E-09  9.51293700E-09  9.51293700E-09  9.51293700E-09  9.51293700E-09  9.51293700E-09  9.51293700E-09  9.51293700E-09  9.51293700E-09  9.51293700E-09  9.51293700E-09  9.51293700E-09  9.51293700E-09  9.51293700E-09  9.51293700E-09  9.51293700E-09  9.51293700E-09  9.51293700E-09
    9.51293700E-09  9.51293700E-09  9.51293700E-09  9.51293700E-09  9.51293700E-09  9.51293700E-09  9.51293700E-09  9.51293700E-09  9.51293700E-09  9.51293700E-09  9.51293700E-09  9.51293700E-09  9.51293700E-09  9.51293700E-09  9.51293700E-09  9.51293700E-09  9.51293700E-09  9.51293700E-09  9.51293700E-09  9.51293700E-09
    9.51293700E-09  9.51293700E-09  9.51293700E-09  9.51293700E-09  9.51293700E-09  9.51293700E-09  9.51293700E-09  9.51293700E-09  9.51293700E-09  9.51293700E-09  9.51293700E-09  9.51293700E-09  9.51293700E-09  9.51293700E-09  9.51293700E-09  9.51293700E-09  9.51293700E-09  9.51293700E-09  9.51293700E-09  9.51293700E-09
    9.51293700E-09  9.51293700E-09  9.51293700E-09  9.51293700E-09  9.51293700E-09  9.51293700E-09  9.51293700E-09  9.51293700E-09  9.51293700E-09  9.51293700E-09  9.51293700E-09  9.51293700E-09  9.51293700E-09  9.51293700E-09  9.51293700E-09  9.51293700E-09  9.51293700E-09  9.51293700E-09  9.51293700E-09  9.51293700E-09
    9.51293700E-09  9.51293700E-09  9.51293700E-09  9.51293700E-09  9.51293700E-09  9.51293700E-09  9.51293700E-09  9.51293700E-09  9.51293700E-09  9.51293700E-09  9.51293700E-09  9.51293700E-09  9.51293700E-09  9.51293700E-09  9.51293700E-09  9.51293700E-09  9.51293700E-09  9.51293700E-09  9.51293700E-09  9.51293700E-09
    9.51293700E-09  9.51293700E-09  9.51293700E-09  9.51293700E-09  9.51293700E-09  9.51293700E-09  9.51293700E-09  9.51293700E-09  9.51293700E-09  9.51293700E-09  9.51293700E-09  9.51293700E-09  9.51293700E-09  9.51293700E-09  9.51293700E-09  9.51293700E-09  9.51293700E-09  9.51293700E-09  9.51293700E-09  9.51293700E-09
    9.51293700E-09  9.51293700E-09  9.51293700E-09  9.51293700E-09  9.51293700E-09  9.51293700E-09  9.51293700E-09  9.51293700E-09  9.51293700E-09  9.51293700E-09  9.51293700E-09  9.51293700E-09  9.51293700E-09  9.51293700E-09  9.51293700E-09  9.51293700E-09  9.51293700E-09  9.51293700E-09  9.51293700E-09  9.51293700E-09
    9.51293700E-09  9.51293700E-09  9.51293700E-09  9.51293700E-09  9.51293700E-09  9.51293700E-09  9.51293700E-09  9.51293700E-09  9.51293700E-09  9.51293700E-09  9.51293700E-09  9.51293700E-09  9.51293700E-09  9.51293700E-09  9.51293700E-09  9.51293700E-09  9.51293700E-09  9.51293700E-09  9.51293700E-09  9.51293700E-09
    9.51293700E-09  9.51293700E-09  9.51293700E-09  9.51293700E-09  9.51293700E-09  9.51293700E-09  9.51293700E-09  9.51293700E-09  9.51293700E-09  9.51293700E-09  9.51293700E-09  9.51293700E-09  9.51293700E-09  9.51293700E-09  9.51293700E-09  9.51293700E-09  9.51293700E-09  9.51293700E-09  9.51293700E-09  9.51293700E-09
    9.51293700E-09  9.51293700E-09  9.51293700E-09  9.51293700E-09  9.51293700E-09  9.51293700E-09  9.51293700E-09  9.51293700E-09  9.51293700E-09  9.51293700E-09  9.51293700E-09  9.51293700E-09  9.51293700E-09  9.51293700E-09  9.51293700E-09  9.51293700E-09  9.51293700E-09  9.51293700E-09  9.51293700E-09  9.51293700E-09
    9.51293700E-09  9.51293700E-09  9.51293700E-09  9.51293700E-09  9.51293700E-09  9.51293700E-09  9.51293700E-09  9.51293700E-09  9.51293700E-09  9.51293700E-09  9.51293700E-09  9.51293700E-09  9.51293700E-09  9.51293700E-09  9.51293700E-09  9.51293700E-09  9.51293700E-09  9.51293700E-09  9.51293700E-09  9.51293700E-09
    9.51293700E-09  9.51293700E-09  9.51293700E-09  9.51293700E-09  9.51293700E-09  9.51293700E-09  9.51293700E-09  9.51293700E-09  9.51293700E-09  9.51293700E-09  9.51293700E-09  9.51293700E-09  9.51293700E-09  9.51293700E-09  9.51293700E-09  9.51293700E-09  9.51293700E-09  9.51293700E-09  9.51293700E-09  9.51293700E-09
    9.51293700E-09  9.51293700E-09  9.51293700E-09  9.51293700E-09  9.51293700E-09  9.51293700E-09  9.51293700E-09  9.51293700E-09  9.51293700E-09  9.51293700E-09  9.51293700E-09  9.51293700E-09  9.51293700E-09  9.51293700E-09  9.51293700E-09  9.51293700E-09  9.51293700E-09  9.51293700E-09  9.51293700E-09  9.51293700E-09
    9.51293700E-09  9.51293700E-09  9.51293700E-09  9.51293700E-09  9.51293700E-09  9.51293700E-09  9.51293700E-09  9.51293700E-09  9.51293700E-09  9.51293700E-09  9.51293700E-09  9.51293700E-09  9.51293700E-09  9.51293700E-09  9.51293700E-09  9.51293700E-09  9.51293700E-09  9.51293700E-09  9.51293700E-09  9.51293700E-09
    9.51293700E-09  9.51293700E-09  9.51293700E-09  9.51293700E-09  9.51293700E-09  9.51293700E-09  9.51293700E-09  9.51293700E-09  9.51293700E-09  9.51293700E-09  9.51293700E-09  9.51293700E-09  9.51293700E-09  9.51293700E-09  9.51293700E-09  9.51293700E-09  9.51293700E-09  9.51293700E-09  9.51293700E-09  9.51293700E-09
    9.51293700E-09  9.51293700E-09  9.51293700E-09  9.51293700E-09  9.51293700E-09  9.51293700E-09  9.51293700E-09  9.51293700E-09  9.51293700E-09  9.51293700E-09  9.51293700E-09  9.51293700E-09  9.51293700E-09  9.51293700E-09  9.51293700E-09  9.51293700E-09  9.51293700E-09  9.51293700E-09  9.51293700E-09  9.51293700E-09
    9.51293700E-09  9.51293700E-09  9.51293700E-09  9.51293700E-09  9.51293700E-09  9.51293700E-09  9.51293700E-09  9.51293700E-09  9.51293700E-09  9.51293700E-09  9.51293700E-09  9.51293700E-09  9.51293700E-09  9.51293700E-09  9.51293700E-09  9.51293700E-09  9.51293700E-09  9.51293700E-09  9.51293700E-09  9.51293700E-09
    9.51293700E-09  9.51293700E-09  9.51293700E-09  9.51293700E-09  9.51293700E-09  9.51293700E-09  9.51293700E-09  9.51293700E-09  9.51293700E-09  9.51293700E-09  9.51293700E-09  9.51293700E-09  9.51293700E-09  9.51293700E-09  9.51293700E-09  9.51293700E-09  9.51293700E-09  9.51293700E-09  9.51293700E-09  9.51293700E-09
    9.51293700E-09  9.51293700E-09  9.51293700E-09  9.51293700E-09  9.51293700E-09  9.51293700E-09  9.51293700E-09  9.51293700E-09  9.51293700E-09  9.51293700E-09  9.51293700E-09  9.51293700E-09  9.51293700E-09  9.51293700E-09  9.51293700E-09  9.51293700E-09  9.51293700E-09  9.51293700E-09  9.51293700E-09  9.51293700E-09
    9.51293700E-09  9.51293700E-09  9.51293700E-09  9.51293700E-09  9.51293700E-09  9.51293700E-09  9.51293700E-09  9.51293700E-09  9.51293700E-09  9.51293700E-09  9.51293700E-09  9.51293700E-09  9.51293700E-09  9.51293700E-09  9.51293700E-09  9.51293700E-09  9.51293700E-09  9.51293700E-09  9.51293700E-09  9.51293700E-09
    9.51293700E-09  9.51293700E-09  9.51293700E-09  9.51293700E-09  9.51293700E-09  9.51293700E-09  9.51293700E-09  9.51293700E-09  9.51293700E-09  9.51293700E-09  9.51293700E-09  9.51293700E-09  9.51293700E-09  9.51293700E-09  9.51293700E-09  9.51293700E-09  9.51293700E-09  9.51293700E-09  9.51293700E-09  9.51293700E-09
    9.51293700E-09  9.51293700E-09  9.51293700E-09  9.51293700E-09  9.51293700E-09  9.51293700E-09  9.51293700E-09  9.51293700E-09  9.51293700E-09  9.51293700E-09  9.51293700E-09  9.51293700E-09  9.51293700E-09  9.51293700E-09  9.51293700E-09  9.51293700E-09  9.51293700E-09  9.51293700E-09  9.51293700E-09  9.51293700E-09
    9.51293700E-09  9.51293700E-09  9.51293700E-09  9.51293700E-09  9.51293700E-09  9.51293700E-09  9.51293700E-09  9.51293700E-09  9.51293700E-09  9.51293700E-09  9.51293700E-09  9.51293700E-09  9.51293700E-09  9.51293700E-09  9.51293700E-09  9.51293700E-09  9.51293700E-09  9.51293700E-09  9.51293700E-09  9.51293700E-09
    9.51293700E-09  9.51293700E-09  9.51293700E-09  9.51293700E-09  9.51293700E-09  9.51293700E-09  9.51293700E-09  9.51293700E-09  9.51293700E-09  9.51293700E-09  9.51293700E-09  9.51293700E-09  9.51293700E-09  9.51293700E-09  9.51293700E-09  9.51293700E-09  9.51293700E-09  9.51293700E-09  9.51293700E-09  9.51293700E-09
    9.51293700E-09  9.51293700E-09  9.51293700E-09  9.51293700E-09  9.51293700E-09  9.51293700E-09  9.51293700E-09  9.51293700E-09  9.51293700E-09  9.51293700E-09  9.51293700E-09  9.51293700E-09  9.51293700E-09  9.51293700E-09  9.51293700E-09  9.51293700E-09  9.51293700E-09  9.51293700E-09  9.51293700E-09  9.51293700E-09
    9.51293700E-09  9.51293700E-09  9.51293700E-09  9.51293700E-09  9.51293700E-09  9.51293700E-09  9.51293700E-09  9.51293700E-09  9.51293700E-09  9.51293700E-09  9.51293700E-09  9.51293700E-09  9.51293700E-09  9.51293700E-09  9.51293700E-09  9.51293700E-09  9.51293700E-09  9.51293700E-09  9.51293700E-09  9.51293700E-09
    9.51293700E-09  9.51293700E-09  9.51293700E-09  9.51293700E-09  9.51293700E-09  9.51293700E-09  9.51293700E-09  9.51293700E-09  9.51293700E-09  9.51293700E-09  9.51293700E-09  9.51293700E-09  9.51293700E-09  9.51293700E-09  9.51293700E-09  9.51293700E-09  9.51293700E-09  9.51293700E-09  9.51293700E-09  9.51293700E-09
    9.51293700E-09  9.51293700E-09  9.51293700E-09  9.51293700E-09  9.51293700E-09  9.51293700E-09  9.51293700E-09  9.51293700E-09  9.51293700E-09  9.51293700E-09  9.51293700E-09  9.51293700E-09  9.51293700E-09  9.51293700E-09  9.51293700E-09  9.51293700E-09  9.51293700E-09  9.51293700E-09  9.51293700E-09  9.51293700E-09
    9.51293700E-09  9.51293700E-09  9.51293700E-09  9.51293700E-09  9.51293700E-09  9.51293700E-09  9.51293700E-09  9.51293700E-09  9.51293700E-09  9.51293700E-09  9.51293700E-09  9.51293700E-09  9.51293700E-09  9.51293700E-09  9.51293700E-09  9.51293700E-09  9.51293700E-09  9.51293700E-09  9.51293700E-09  9.51293700E-09
    9.51293700E-09  9.51293700E-09  9.51293700E-09  9.51293700E-09  9.51293700E-09  9.51293700E-09  9.51293700E-09  9.51293700E-09  9.51293700E-09  9.51293700E-09  9.51293700E-09  9.51293700E-09  9.51293700E-09  9.51293700E-09  9.51293700E-09  9.51293700E-09  9.51293700E-09  9.51293700E-09  9.51293700E-09  9.51293700E-09
    9.51293700E-09  9.51293700E-09  9.51293700E-09  9.51293700E-09  9.51293700E-09  9.51293700E-09  9.51293700E-09  9.51293700E-09  9.51293700E-09  9.51293700E-09  9.51293700E-09  9.51293700E-09  9.51293700E-09  9.51293700E-09  9.51293700E-09  9.51293700E-09  9.51293700E-09  9.51293700E-09  9.51293700E-09  9.51293700E-09
    9.51293700E-09  9.51293700E-09  9.51293700E-09  9.51293700E-09  9.51293700E-09  9.51293700E-09  9.51293700E-09  9.51293700E-09  9.51293700E-09  9.51293700E-09  9.51293700E-09  9.51293700E-09  9.51293700E-09  9.51293700E-09  9.51293700E-09  9.51293700E-09  9.51293700E-09  9.51293700E-09  9.51293700E-09  9.51293700E-09
    9.51293700E-09  9.51293700E-09  9.51293700E-09  9.51293700E-09  9.51293700E-09  9.51293700E-09  9.51293700E-09  9.51293700E-09  9.51293700E-09  9.51293700E-09  9.51293700E-09  9.51293700E-09  9.51293700E-09  9.51293700E-09  9.51293700E-09  9.51293700E-09  9.51293700E-09  9.51293700E-09  9.51293700E-09  9.51293700E-09
    9.51293700E-09  9.51293700E-09  9.51293700E-09  9.51293700E-09  9.51293700E-09  9.51293700E-09  9.51293700E-09  9.51293700E-09  9.51293700E-09  9.51293700E-09  9.51293700E-09  9.51293700E-09  9.51293700E-09  9.51293700E-09  9.51293700E-09  9.51293700E-09  9.51293700E-09  9.51293700E-09  9.51293700E-09  9.51293700E-09
    9.51293700E-09  9.51293700E-09  9.51293700E-09  9.51293700E-09  9.51293700E-09  9.51293700E-09  9.51293700E-09  9.51293700E-09  9.51293700E-09  9.51293700E-09  9.51293700E-09  9.51293700E-09  9.51293700E-09  9.51293700E-09  9.51293700E-09  9.51293700E-09  9.51293700E-09  9.51293700E-09  9.51293700E-09  9.51293700E-09
    9.51293700E-09  9.51293700E-09  9.51293700E-09  9.51293700E-09  9.51293700E-09  9.51293700E-09  9.51293700E-09  9.51293700E-09  9.51293700E-09  9.51293700E-09  9.51293700E-09  9.51293700E-09  9.51293700E-09  9.51293700E-09  9.51293700E-09  9.51293700E-09  9.51293700E-09  9.51293700E-09  9.51293700E-09  9.51293700E-09
    9.51293700E-09  9.51293700E-09  9.51293700E-09  9.51293700E-09  9.51293700E-09  9.51293700E-09  9.51293700E-09  9.51293700E-09  9.51293700E-09  9.51293700E-09  9.51293700E-09  9.51293700E-09  9.51293700E-09  9.51293700E-09  9.51293700E-09  9.51293700E-09  9.51293700E-09  9.51293700E-09  9.51293700E-09  9.51293700E-09
    9.51293700E-09  9.51293700E-09  9.51293700E-09  9.51293700E-09  9.51293700E-09  9.51293700E-09  9.51293700E-09  9.51293700E-09  9.51293700E-09  9.51293700E-09  9.51293700E-09  9.51293700E-09  9.51293700E-09  9.51293700E-09  9.51293700E-09  9.51293700E-09  9.51293700E-09  9.51293700E-09  9.51293700E-09  9.51293700E-09
    9.51293700E-09  9.51293700E-09  9.51293700E-09  9.51293700E-09  9.51293700E-09  9.51293700E-09  9.51293700E-09  9.51293700E-09  9.51293700E-09  9.51293700E-09  9.51293700E-09  9.51293700E-09  9.51293700E-09  9.51293700E-09  9.51293700E-09  9.51293700E-09  9.51293700E-09  9.51293700E-09  9.51293700E-09  9.51293700E-09
    9.51293700E-09  9.51293700E-09  9.51293700E-09  9.51293700E-09  9.51293700E-09  9.51293700E-09  9.51293700E-09  9.51293700E-09  9.51293700E-09  9.51293700E-09  9.51293700E-09  9.51293700E-09  9.51293700E-09  9.51293700E-09  9.51293700E-09  9.51293700E-09  9.51293700E-09  9.51293700E-09  9.51293700E-09  9.51293700E-09
    9.51293700E-09  9.51293700E-09  9.51293700E-09  9.51293700E-09  9.51293700E-09  9.51293700E-09  9.51293700E-09  9.51293700E-09  9.51293700E-09  9.51293700E-09  9.51293700E-09  9.51293700E-09  9.51293700E-09  9.51293700E-09  9.51293700E-09  9.51293700E-09  9.51293700E-09  9.51293700E-09  9.51293700E-09  9.51293700E-09
    9.51293700E-09  9.51293700E-09  9.51293700E-09  9.51293700E-09  9.51293700E-09  9.51293700E-09  9.51293700E-09  9.51293700E-09  9.51293700E-09  9.51293700E-09  9.51293700E-09  9.51293700E-09  9.51293700E-09  9.51293700E-09  9.51293700E-09  9.51293700E-09  9.51293700E-09  9.51293700E-09  9.51293700E-09  9.51293700E-09
    9.51293700E-09  9.51293700E-09  9.51293700E-09  9.51293700E-09  9.51293700E-09  9.51293700E-09  9.51293700E-09  9.51293700E-09  9.51293700E-09  9.51293700E-09  9.51293700E-09  9.51293700E-09  9.51293700E-09  9.51293700E-09  9.51293700E-09  9.51293700E-09  9.51293700E-09  9.51293700E-09  9.51293700E-09  9.51293700E-09
    9.51293700E-09  9.51293700E-09  9.51293700E-09  9.51293700E-09  9.51293700E-09  9.51293700E-09  9.51293700E-09  9.51293700E-09  9.51293700E-09  9.51293700E-09  9.51293700E-09  9.51293700E-09  9.51293700E-09  9.51293700E-09  9.51293700E-09  9.51293700E-09  9.51293700E-09  9.51293700E-09  9.51293700E-09  9.51293700E-09
    9.51293700E-09  9.51293700E-09  9.51293700E-09  9.51293700E-09  9.51293700E-09  9.51293700E-09  9.51293700E-09  9.51293700E-09  9.51293700E-09  9.51293700E-09  9.51293700E-09  9.51293700E-09  9.51293700E-09  9.51293700E-09  9.51293700E-09  9.51293700E-09  9.51293700E-09  9.51293700E-09  9.51293700E-09  9.51293700E-09
    9.51293700E-09  9.51293700E-09  9.51293700E-09  9.51293700E-09  9.51293700E-09  9.51293700E-09  9.51293700E-09  9.51293700E-09  9.51293700E-09  9.51293700E-09  9.51293700E-09  9.51293700E-09  9.51293700E-09  9.51293700E-09  9.51293700E-09  9.51293700E-09  9.51293700E-09  9.51293700E-09  9.51293700E-09  9.51293700E-09
    9.51293700E-09  9.51293700E-09  9.51293700E-09  9.51293700E-09  9.51293700E-09  9.51293700E-09  9.51293700E-09  9.51293700E-09  9.51293700E-09  9.51293700E-09  9.51293700E-09  9.51293700E-09  9.51293700E-09  9.51293700E-09  9.51293700E-09  9.51293700E-09  9.51293700E-09  9.51293700E-09  9.51293700E-09  9.51293700E-09
    9.51293700E-09  9.51293700E-09  9.51293700E-09  9.51293700E-09  9.51293700E-09  9.51293700E-09  9.51293700E-09  9.51293700E-09  9.51293700E-09  9.51293700E-09  9.51293700E-09  9.51293700E-09  9.51293700E-09  9.51293700E-09  9.51293700E-09  9.51293700E-09  9.51293700E-09  9.51293700E-09  9.51293700E-09  9.51293700E-09
    9.51293700E-09  9.51293700E-09  9.51293700E-09  9.51293700E-09  9.51293700E-09  9.51293700E-09  9.51293700E-09  9.51293700E-09  9.51293700E-09  9.51293700E-09  9.51293700E-09  9.51293700E-09  9.51293700E-09  9.51293700E-09  9.51293700E-09  9.51293700E-09  9.51293700E-09  9.51293700E-09  9.51293700E-09  9.51293700E-09
    9.51293700E-09  9.51293700E-09  9.51293700E-09  9.51293700E-09  9.51293700E-09  9.51293700E-09  9.51293700E-09  9.51293700E-09  9.51293700E-09  9.51293700E-09  9.51293700E-09  9.51293700E-09  9.51293700E-09  9.51293700E-09  9.51293700E-09  9.51293700E-09  9.51293700E-09  9.51293700E-09  9.51293700E-09  9.51293700E-09
    9.51293700E-09  9.51293700E-09  9.51293700E-09  9.51293700E-09  9.51293700E-09  9.51293700E-09  9.51293700E-09  9.51293700E-09  9.51293700E-09  9.51293700E-09  9.51293700E-09  9.51293700E-09  9.51293700E-09  9.51293700E-09  9.51293700E-09  9.51293700E-09  9.51293700E-09  9.51293700E-09  9.51293700E-09  9.51293700E-09
    9.51293700E-09  9.51293700E-09  9.51293700E-09  9.51293700E-09  9.51293700E-09  9.51293700E-09  9.51293700E-09  9.51293700E-09  9.51293700E-09  9.51293700E-09  9.51293700E-09  9.51293700E-09  9.51293700E-09  9.51293700E-09  9.51293700E-09  9.51293700E-09  9.51293700E-09  9.51293700E-09  9.51293700E-09  9.51293700E-09
    9.51293700E-09  9.51293700E-09  9.51293700E-09  9.51293700E-09  9.51293700E-09  9.51293700E-09  9.51293700E-09  9.51293700E-09  9.51293700E-09  9.51293700E-09  9.51293700E-09  9.51293700E-09  9.51293700E-09  9.51293700E-09  9.51293700E-09  9.51293700E-09  9.51293700E-09  9.51293700E-09  9.51293700E-09  9.51293700E-09
    9.51293700E-09  9.51293700E-09  9.51293700E-09  9.51293700E-09  9.51293700E-09  9.51293700E-09  9.51293700E-09  9.51293700E-09  9.51293700E-09  9.51293700E-09  9.51293700E-09  9.51293700E-09  9.51293700E-09  9.51293700E-09  9.51293700E-09  9.51293700E-09  9.51293700E-09  9.51293700E-09  9.51293700E-09  9.51293700E-09
    9.51293700E-09  9.51293700E-09  9.51293700E-09  9.51293700E-09  9.51293700E-09  9.51293700E-09  9.51293700E-09  9.51293700E-09  9.51293700E-09  9.51293700E-09  9.51293700E-09  9.51293700E-09  9.51293700E-09  9.51293700E-09  9.51293700E-09  9.51293700E-09  9.51293700E-09  9.51293700E-09  9.51293700E-09  9.51293700E-09
    9.51293700E-09  9.51293700E-09  9.51293700E-09  9.51293700E-09  9.51293700E-09  9.51293700E-09  9.51293700E-09  9.51293700E-09  9.51293700E-09  9.51293700E-09  9.51293700E-09  9.51293700E-09  9.51293700E-09  9.51293700E-09  9.51293700E-09  9.51293700E-09  9.51293700E-09  9.51293700E-09  9.51293700E-09  9.51293700E-09
    9.51293700E-09  9.51293700E-09  9.51293700E-09  9.51293700E-09  9.51293700E-09  9.51293700E-09  9.51293700E-09  9.51293700E-09  9.51293700E-09  9.51293700E-09  9.51293700E-09  9.51293700E-09  9.51293700E-09  9.51293700E-09  9.51293700E-09  9.51293700E-09  9.51293700E-09  9.51293700E-09  9.51293700E-09  9.51293700E-09
    9.51293700E-09  9.51293700E-09  9.51293700E-09  9.51293700E-09  9.51293700E-09  9.51293700E-09  9.51293700E-09  9.51293700E-09  9.51293700E-09  9.51293700E-09  9.51293700E-09  9.51293700E-09  9.51293700E-09  9.51293700E-09  9.51293700E-09  9.51293700E-09  9.51293700E-09  9.51293700E-09  9.51293700E-09  9.51293700E-09
    9.51293700E-09  9.51293700E-09  9.51293700E-09  9.51293700E-09  9.51293700E-09  9.51293700E-09  9.51293700E-09  9.51293700E-09  9.51293700E-09  9.51293700E-09  9.51293700E-09  9.51293700E-09  9.51293700E-09  9.51293700E-09  9.51293700E-09  9.51293700E-09  9.51293700E-09  9.51293700E-09  9.51293700E-09  9.51293700E-09
    9.51293700E-09  9.51293700E-09  9.51293700E-09  9.51293700E-09  9.51293700E-09  9.51293700E-09  9.51293700E-09  9.51293700E-09  9.51293700E-09  9.51293700E-09  9.51293700E-09  9.51293700E-09  9.51293700E-09  9.51293700E-09  9.51293700E-09  9.51293700E-09  9.51293700E-09  9.51293700E-09  9.51293700E-09  9.51293700E-09
    9.51293700E-09  9.51293700E-09  9.51293700E-09  9.51293700E-09  9.51293700E-09  9.51293700E-09  9.51293700E-09  9.51293700E-09  9.51293700E-09  9.51293700E-09  9.51293700E-09  9.51293700E-09  9.51293700E-09  9.51293700E-09  9.51293700E-09  9.51293700E-09  9.51293700E-09  9.51293700E-09  9.51293700E-09  9.51293700E-09
    9.51293700E-09  9.51293700E-09  9.51293700E-09  9.51293700E-09  9.51293700E-09  9.51293700E-09  9.51293700E-09  9.51293700E-09  9.51293700E-09  9.51293700E-09  9.51293700E-09  9.51293700E-09  9.51293700E-09  9.51293700E-09  9.51293700E-09  9.51293700E-09  9.51293700E-09  9.51293700E-09  9.51293700E-09  9.51293700E-09
    9.51293700E-09  9.51293700E-09  9.51293700E-09  9.51293700E-09  9.51293700E-09  9.51293700E-09  9.51293700E-09  9.51293700E-09  9.51293700E-09  9.51293700E-09  9.51293700E-09  9.51293700E-09  9.51293700E-09  9.51293700E-09  9.51293700E-09  9.51293700E-09  9.51293700E-09  9.51293700E-09  9.51293700E-09  9.51293700E-09
    9.51293700E-09  9.51293700E-09  9.51293700E-09  9.51293700E-09  9.51293700E-09  9.51293700E-09  9.51293700E-09  9.51293700E-09  9.51293700E-09  9.51293700E-09  9.51293700E-09  9.51293700E-09  9.51293700E-09  9.51293700E-09  9.51293700E-09  9.51293700E-09  9.51293700E-09  9.51293700E-09  9.51293700E-09  9.51293700E-09
    9.51293700E-09  9.51293700E-09  9.51293700E-09  9.51293700E-09  9.51293700E-09  9.51293700E-09  9.51293700E-09  9.51293700E-09  9.51293700E-09  9.51293700E-09  9.51293700E-09  9.51293700E-09  9.51293700E-09  9.51293700E-09  9.51293700E-09  9.51293700E-09  9.51293700E-09  9.51293700E-09  9.51293700E-09  9.51293700E-09
    9.51293700E-09  9.51293700E-09  9.51293700E-09  9.51293700E-09  9.51293700E-09  9.51293700E-09  9.51293700E-09  9.51293700E-09  9.51293700E-09  9.51293700E-09  9.51293700E-09  9.51293700E-09  9.51293700E-09  9.51293700E-09  9.51293700E-09  9.51293700E-09  9.51293700E-09  9.51293700E-09  9.51293700E-09  9.51293700E-09
    9.51293700E-09  9.51293700E-09  9.51293700E-09  9.51293700E-09  9.51293700E-09  9.51293700E-09  9.51293700E-09  9.51293700E-09  9.51293700E-09  9.51293700E-09  9.51293700E-09  9.51293700E-09  9.51293700E-09  9.51293700E-09  9.51293700E-09  9.51293700E-09  9.51293700E-09  9.51293700E-09  9.51293700E-09  9.51293700E-09
    9.51293700E-09  9.51293700E-09  9.51293700E-09  9.51293700E-09  9.51293700E-09  9.51293700E-09  9.51293700E-09  9.51293700E-09  9.51293700E-09  9.51293700E-09  9.51293700E-09  9.51293700E-09  9.51293700E-09  9.51293700E-09  9.51293700E-09  9.51293700E-09  9.51293700E-09  9.51293700E-09  9.51293700E-09  9.51293700E-09
    9.51293700E-09  9.51293700E-09  9.51293700E-09  9.51293700E-09  9.51293700E-09  9.51293700E-09  9.51293700E-09  9.51293700E-09  9.51293700E-09  9.51293700E-09  9.51293700E-09  9.51293700E-09  9.51293700E-09  9.51293700E-09  9.51293700E-09  9.51293700E-09  9.51293700E-09  9.51293700E-09  9.51293700E-09  9.51293700E-09
    9.51293700E-09  9.51293700E-09  9.51293700E-09  9.51293700E-09  9.51293700E-09  9.51293700E-09  9.51293700E-09  9.51293700E-09  9.51293700E-09  9.51293700E-09  9.51293700E-09  9.51293700E-09  9.51293700E-09  9.51293700E-09  9.51293700E-09  9.51293700E-09  9.51293700E-09  9.51293700E-09  9.51293700E-09  9.51293700E-09
    9.51293700E-09  9.51293700E-09  9.51293700E-09  9.51293700E-09  9.51293700E-09  9.51293700E-09  9.51293700E-09  9.51293700E-09  9.51293700E-09  9.51293700E-09  9.51293700E-09  9.51293700E-09  9.51293700E-09  9.51293700E-09  9.51293700E-09  9.51293700E-09  9.51293700E-09  9.51293700E-09  9.51293700E-09  9.51293700E-09
    9.51293700E-09  9.51293700E-09  9.51293700E-09  9.51293700E-09  9.51293700E-09  9.51293700E-09  9.51293700E-09  9.51293700E-09  9.51293700E-09  9.51293700E-09  9.51293700E-09  9.51293700E-09  9.51293700E-09  9.51293700E-09  9.51293700E-09  9.51293700E-09  9.51293700E-09  9.51293700E-09  9.51293700E-09  9.51293700E-09
    9.51293700E-09  9.51293700E-09  9.51293700E-09  9.51293700E-09  9.51293700E-09  9.51293700E-09  9.51293700E-09  9.51293700E-09  9.51293700E-09  9.51293700E-09  9.51293700E-09  9.51293700E-09  9.51293700E-09  9.51293700E-09  9.51293700E-09  9.51293700E-09  9.51293700E-09  9.51293700E-09  9.51293700E-09  9.51293700E-09
    9.51293700E-09  9.51293700E-09  9.51293700E-09  9.51293700E-09  9.51293700E-09  9.51293700E-09  9.51293700E-09  9.51293700E-09  9.51293700E-09  9.51293700E-09  9.51293700E-09  9.51293700E-09  9.51293700E-09  9.51293700E-09  9.51293700E-09  9.51293700E-09  9.51293700E-09  9.51293700E-09  9.51293700E-09  9.51293700E-09
    9.51293700E-09  9.51293700E-09  9.51293700E-09  9.51293700E-09  9.51293700E-09  9.51293700E-09  9.51293700E-09  9.51293700E-09  9.51293700E-09  9.51293700E-09  9.51293700E-09  9.51293700E-09  9.51293700E-09  9.51293700E-09  9.51293700E-09  9.51293700E-09  9.51293700E-09  9.51293700E-09  9.51293700E-09  9.51293700E-09
    9.51293700E-09  9.51293700E-09  9.51293700E-09  9.51293700E-09  9.51293700E-09  9.51293700E-09  9.51293700E-09  9.51293700E-09  9.51293700E-09  9.51293700E-09  9.51293700E-09  9.51293700E-09  9.51293700E-09  9.51293700E-09  9.51293700E-09  9.51293700E-09  9.51293700E-09  9.51293700E-09  9.51293700E-09  9.51293700E-09
    9.51293700E-09  9.51293700E-09  9.51293700E-09  9.51293700E-09  9.51293700E-09  9.51293700E-09  9.51293700E-09  9.51293700E-09  9.51293700E-09  9.51293700E-09  9.51293700E-09  9.51293700E-09  9.51293700E-09  9.51293700E-09  9.51293700E-09  9.51293700E-09  9.51293700E-09  9.51293700E-09  9.51293700E-09  9.51293700E-09
    9.51293700E-09  9.51293700E-09  9.51293700E-09  9.51293700E-09  9.51293700E-09  9.51293700E-09  9.51293700E-09  9.51293700E-09  9.51293700E-09  9.51293700E-09  9.51293700E-09  9.51293700E-09  9.51293700E-09  9.51293700E-09  9.51293700E-09  9.51293700E-09  9.51293700E-09  9.51293700E-09  9.51293700E-09  9.51293700E-09
    9.51293700E-09  9.51293700E-09  9.51293700E-09  9.51293700E-09  9.51293700E-09  9.51293700E-09  9.51293700E-09  9.51293700E-09  9.51293700E-09  9.51293700E-09  9.51293700E-09  9.51293700E-09  9.51293700E-09  9.51293700E-09  9.51293700E-09  9.51293700E-09  9.51293700E-09  9.51293700E-09  9.51293700E-09  9.51293700E-09
    9.51293700E-09  9.51293700E-09  9.51293700E-09  9.51293700E-09  9.51293700E-09  9.51293700E-09  9.51293700E-09  9.51293700E-09  9.51293700E-09  9.51293700E-09  9.51293700E-09  9.51293700E-09  9.51293700E-09  9.51293700E-09  9.51293700E-09  9.51293700E-09  9.51293700E-09  9.51293700E-09  9.51293700E-09  9.51293700E-09
    9.51293700E-09  9.51293700E-09  9.51293700E-09  9.51293700E-09  9.51293700E-09  9.51293700E-09  9.51293700E-09  9.51293700E-09  9.51293700E-09  9.51293700E-09  9.51293700E-09  9.51293700E-09  9.51293700E-09  9.51293700E-09  9.51293700E-09  9.51293700E-09  9.51293700E-09  9.51293700E-09  9.51293700E-09  9.51293700E-09
    9.51293700E-09  9.51293700E-09  9.51293700E-09  9.51293700E-09  9.51293700E-09  9.51293700E-09  9.51293700E-09  9.51293700E-09  9.51293700E-09  9.51293700E-09  9.51293700E-09  9.51293700E-09  9.51293700E-09  9.51293700E-09  9.51293700E-09  9.51293700E-09  9.51293700E-09  9.51293700E-09  9.51293700E-09  9.51293700E-09
    9.51293700E-09  9.51293700E-09  9.51293700E-09  9.51293700E-09  9.51293700E-09  9.51293700E-09  9.51293700E-09  9.51293700E-09  9.51293700E-09  9.51293700E-09  9.51293700E-09  9.51293700E-09  9.51293700E-09  9.51293700E-09  9.51293700E-09  9.51293700E-09  9.51293700E-09  9.51293700E-09  9.51293700E-09  9.51293700E-09
    9.51293700E-09  9.51293700E-09  9.51293700E-09  9.51293700E-09  9.51293700E-09  9.51293700E-09  9.51293700E-09  9.51293700E-09  9.51293700E-09  9.51293700E-09  9.51293700E-09  9.51293700E-09  9.51293700E-09  9.51293700E-09  9.51293700E-09  9.51293700E-09  9.51293700E-09  9.51293700E-09  9.51293700E-09  9.51293700E-09
    9.51293700E-09  9.51293700E-09  9.51293700E-09  9.51293700E-09  9.51293700E-09  9.51293700E-09  9.51293700E-09  9.51293700E-09  9.51293700E-09  9.51293700E-09  9.51293700E-09  9.51293700E-09  9.51293700E-09  9.51293700E-09  9.51293700E-09  9.51293700E-09  9.51293700E-09  9.51293700E-09  9.51293700E-09  9.51293700E-09
    9.51293700E-09  9.51293700E-09  9.51293700E-09  9.51293700E-09  9.51293700E-09  9.51293700E-09  9.51293700E-09  9.51293700E-09  9.51293700E-09  9.51293700E-09  9.51293700E-09  9.51293700E-09  9.51293700E-09  9.51293700E-09  9.51293700E-09  9.51293700E-09  9.51293700E-09  9.51293700E-09  9.51293700E-09  9.51293700E-09
    9.51293700E-09  9.51293700E-09  9.51293700E-09  9.51293700E-09  9.51293700E-09  9.51293700E-09  9.51293700E-09  9.51293700E-09  9.51293700E-09  9.51293700E-09  9.51293700E-09  9.51293700E-09  9.51293700E-09  9.51293700E-09  9.51293700E-09  9.51293700E-09  9.51293700E-09  9.51293700E-09  9.51293700E-09  9.51293700E-09
    9.51293700E-09  9.51293700E-09  9.51293700E-09  9.51293700E-09  9.51293700E-09  9.51293700E-09  9.51293700E-09  9.51293700E-09  9.51293700E-09  9.51293700E-09  9.51293700E-09  9.51293700E-09  9.51293700E-09  9.51293700E-09  9.51293700E-09  9.51293700E-09  9.51293700E-09  9.51293700E-09  9.51293700E-09  9.51293700E-09
    9.51293700E-09  9.51293700E-09  9.51293700E-09  9.51293700E-09  9.51293700E-09  9.51293700E-09  9.51293700E-09  9.51293700E-09  9.51293700E-09  9.51293700E-09  9.51293700E-09  9.51293700E-09  9.51293700E-09  9.51293700E-09  9.51293700E-09  9.51293700E-09  9.51293700E-09  9.51293700E-09  9.51293700E-09  9.51293700E-09
    9.51293700E-09  9.51293700E-09  9.51293700E-09  9.51293700E-09  9.51293700E-09  9.51293700E-09  9.51293700E-09  9.51293700E-09  9.51293700E-09  9.51293700E-09  9.51293700E-09  9.51293700E-09  9.51293700E-09  9.51293700E-09  9.51293700E-09  9.51293700E-09  9.51293700E-09  9.51293700E-09  9.51293700E-09  9.51293700E-09
    9.51293700E-09  9.51293700E-09  9.51293700E-09  9.51293700E-09  9.51293700E-09  9.51293700E-09  9.51293700E-09  9.51293700E-09  9.51293700E-09  9.51293700E-09  9.51293700E-09  9.51293700E-09  9.51293700E-09  9.51293700E-09  9.51293700E-09  9.51293700E-09  9.51293700E-09  9.51293700E-09  9.51293700E-09  9.51293700E-09
    9.51293700E-09  9.51293700E-09  9.51293700E-09  9.51293700E-09  9.51293700E-09  9.51293700E-09  9.51293700E-09  9.51293700E-09  9.51293700E-09  9.51293700E-09  9.51293700E-09  9.51293700E-09  9.51293700E-09  9.51293700E-09  9.51293700E-09  9.51293700E-09  9.51293700E-09  9.51293700E-09  9.51293700E-09  9.51293700E-09