# MPSIM package for MODPATH 7 generated by Flopy 3.3.5
mp.mpnam
mp.mplst
2 2 2 2 0 0
mp.mpend
mp.mppth
0
1
0
2
1
1
4
BAR
1
0.0
INTERNAL
1
2
200 1
       400     10743               1               0             0.5               0         0
       401     10743               1       0.5829146             0.5               0         0
       402     11420       0.1658292               0             0.5               0         0
       403     11420       0.7487437               0             0.5               0         0
       404     11421       0.3316583               0             0.5               0         0
       405     11421       0.9145728               0             0.5               0         0
       406     11424       0.4974874               0             0.5               0         0
       407     11425      0.08040201               0             0.5               0         0
       408     11425       0.6633166               0             0.5               0         0
       409     11436       0.2462312               0             0.5               0         0
       410     11436       0.8291457               0             0.5               0         0
       411     11436               1       0.4120603             0.5               0         0
       412     11436               1       0.9949749             0.5               0         0
       413     11435       0.5778894               0             0.5               0         0
       414     11438        0.160804               0             0.5               0         0
       415     11438       0.7437186               0             0.5               0         0
       416     11438               1       0.3266332             0.5               0         0
       417     11438               1       0.9095477             0.5               0         0
       418     11417       0.4924623               0             0.5               0         0
       419     11417               1      0.07537688             0.5               0         0
       420     11417               1       0.6582915             0.5               0         0
       421     11458        0.241206               0             0.5               0         0
       422     11458       0.8241206               0             0.5               0         0
       423     11458               1       0.4070352             0.5               0         0
       424     11458               1       0.9899498             0.5               0         0
       425     11453       0.5728643               0             0.5               0         0
       426     11453               1       0.1557789             0.5               0         0
       427     11453               1       0.7386935             0.5               0         0
       428     11454        0.321608               0             0.5               0         0
       429     11454       0.9045226               0             0.5               0         0
       430     11454               1       0.4874372             0.5               0         0
       431     11369      0.07035176               0             0.5               0         0
       432     11369       0.6532663               0             0.5               0         0
       433     11369               1       0.2361809             0.5               0         0
       434     11369               1       0.8190955             0.5               0         0
       435     11367               1       0.4020101             0.5               0         0
       436     11367               1       0.9849246             0.5               0         0
       437     11372       0.5678392               0             0.5               0         0
       438     11372               1       0.1507538             0.5               0         0
       439     11372               1       0.7336683             0.5               0         0
       440     11370               1       0.3165829             0.5               0         0
       441     11370               1       0.8994975             0.5               0         0
       442     11349       0.4824121               0             0.5               0         0
       443     11349               1      0.06532663             0.5               0         0
       444     11349               1       0.6482412             0.5               0         0
       445     11350       0.2311558               0             0.5               0         0
       446     11350       0.8140703               0             0.5               0         0
       447     11350               1       0.3969849             0.5               0         0
       448     11350               1       0.9798995             0.5               0         0
       449     11344               1       0.5628141             0.5               0         0
       450     11343       0.1457286               0             0.5               0         0
       451     11343       0.7286432               0             0.5               0         0
       452     11343               1       0.3115578             0.5               0         0
       453     11343               1       0.8944724             0.5               0         0
       454     11001               1       0.4773869             0.5               0         0
       455     11170      0.06030151               0             0.5               0         0
       456     11170       0.6432161               0             0.5               0         0
       457     11171       0.2261306               0             0.5               0         0
       458     11171       0.8090453               0             0.5               0         0
       459     11171               1       0.3919598             0.5               0         0
       460     11171               1       0.9748744             0.5               0         0
       461     11168        0.557789               0             0.5               0         0
       462     11169       0.1407035               0             0.5               0         0
       463     11169       0.7236181               0             0.5               0         0
       464     11169               1       0.3065327             0.5               0         0
       465     11169               1       0.8894472             0.5               0         0
       466     11178       0.4723618               0             0.5               0         0
       467     11179      0.05527638               0             0.5               0         0
       468     11179       0.6381909               0             0.5               0         0
       469     11182       0.2211055               0             0.5               0         0
       470     11182       0.8040201               0             0.5               0         0
       471     11183       0.3869347               0             0.5               0         0
       472     11183       0.9698492               0             0.5               0         0
       473     11226       0.5527638               0             0.5               0         0
       474     11228               1       0.8643216             0.5               0         0
       475     11228               1        0.281407             0.5               0         0
       476     11229       0.3015075               0             0.5               0         0
       477     11229       0.8844221               0             0.5               0         0
       478     11232       0.4673367               0             0.5               0         0
       479     11233      0.05025126               0             0.5               0         0
       480     11233       0.6331658               0             0.5               0         0
       481     11244       0.2160804               0             0.5               0         0
       482     11244        0.798995               0             0.5               0         0
       483     11244               1       0.3819095             0.5               0         0
       484     11244               1       0.9648241             0.5               0         0
       485     11243       0.5477387               0             0.5               0         0
       486     11246       0.1306533               0             0.5               0         0
       487     11246       0.7135679               0             0.5               0         0
       488     11247       0.2964824               0             0.5               0         0
       489     11247        0.879397               0             0.5               0         0
       490     11930       0.4623116               0             0.5               0         0
       491     11931      0.04522613               0             0.5               0         0
       492     11931       0.6281407               0             0.5               0         0
       493     11934       0.2110553               0             0.5               0         0
       494     11934       0.7939699               0             0.5               0         0
       495     11935       0.3768844               0             0.5               0         0
       496     11935        0.959799               0             0.5               0         0
       497     11937               1       0.4572864             0.5               0         0
       498     11937       0.8743719               0             0.5               0         0
       499     11937       0.2914573               0             0.5               0         0
       500     11936       0.7085427               0             0.5               0         0
       501     11936       0.1256281               0             0.5               0         0
       502     11933       0.5427136               0             0.5               0         0
       503     11932        0.959799               0             0.5               0         0
       504     11932       0.3768844               0             0.5               0         0
       505     11249       0.7939699               0             0.5               0         0
       506     11249       0.2110553               0             0.5               0         0
       507     11248       0.6281407               0             0.5               0         0
       508     11248      0.04522613               0             0.5               0         0
       509     11251               1       0.4623116             0.5               0         0
       510     11251        0.879397               0             0.5               0         0
       511     11251       0.2964824               0             0.5               0         0
       512     11250       0.7135679               0             0.5               0         0
       513     11250       0.1306533               0             0.5               0         0
       514     11239       0.5477387               0             0.5               0         0
       515     11238       0.9648241               0             0.5               0         0
       516     11238       0.3819095               0             0.5               0         0
       517     11235        0.798995               0             0.5               0         0
       518     11235       0.2160804               0             0.5               0         0
       519     11234       0.6331658               0             0.5               0         0
       520     11234      0.05025126               0             0.5               0         0
       521     11191               1       0.5326633             0.5               0         0
       522     11185       0.8844221               0             0.5               0         0
       523     11185       0.3015075               0             0.5               0         0
       524     11184       0.7185929               0             0.5               0         0
       525     11184       0.1356784               0             0.5               0         0
       526     11181       0.5527638               0             0.5               0         0
       527     11186               1       0.9698492             0.5               0         0
       528     11186               1       0.3869347             0.5               0         0
       529     11186       0.8040201               0             0.5               0         0
       530     11186       0.2211055               0             0.5               0         0
       531     11175       0.6381909               0             0.5               0         0
       532     11175      0.05527638               0             0.5               0         0
       533     11176               1       0.4723618             0.5               0         0
       534     11176       0.8894472               0             0.5               0         0
       535     11176       0.3065327               0             0.5               0         0
       536     11173       0.7236181               0             0.5               0         0
       537     11173       0.1407035               0             0.5               0         0
       538     11514               1        0.557789             0.5               0         0
       539     11516               1       0.9748744             0.5               0         0
       540     11516               1       0.3919598             0.5               0         0
       541     11516       0.8090453               0             0.5               0         0
       542     11516       0.2261306               0             0.5               0         0
       543     11351               1       0.6432161             0.5               0         0
       544     11351               1      0.06030151             0.5               0         0
       545     11353               1       0.4773869             0.5               0         0
       546     11353       0.8944724               0             0.5               0         0
       547     11353       0.3115578               0             0.5               0         0
       548     11374               1       0.7286432             0.5               0         0
       549     11374               1       0.1457286             0.5               0         0
       550     11374       0.5628141               0             0.5               0         0
       551     11373               1       0.9798995             0.5               0         0
       552     11373               1       0.3969849             0.5               0         0
       553     11379               1       0.8140703             0.5               0         0
       554     11379               1       0.2311558             0.5               0         0
       555     11379       0.6482412               0             0.5               0         0
       556     11379      0.06532663               0             0.5               0         0
       557     11380               1       0.4824121             0.5               0         0
       558     11466               1       0.8994975             0.5               0         0
       559     11466               1       0.3165829             0.5               0         0
       560     11466       0.7336683               0             0.5               0         0
       561     11466       0.1507538               0             0.5               0         0
       562     11457               1       0.5678392             0.5               0         0
       563     11457       0.9849246               0             0.5               0         0
       564     11457       0.4020101               0             0.5               0         0
       565     11462               1       0.8190955             0.5               0         0
       566     11462               1       0.2361809             0.5               0         0
       567     11462       0.6532663               0             0.5               0         0
       568     11462      0.07035176               0             0.5               0         0
       569     11461               1       0.4874372             0.5               0         0
       570     11461       0.9045226               0             0.5               0         0
       571     11461        0.321608               0             0.5               0         0
       572     11482               1       0.7386935             0.5               0         0
       573     11482               1       0.1557789             0.5               0         0
       574     11482       0.5728643               0             0.5               0         0
       575     11441               1       0.9899498             0.5               0         0
       576     11441               1       0.4070352             0.5               0         0
       577     11441       0.8241206               0             0.5               0         0
       578     11441        0.241206               0             0.5               0         0
       579     11440       0.6582915               0             0.5               0         0
       580     11440      0.07537688               0             0.5               0         0
       581     11443               1       0.4924623             0.5               0         0
       582     11443       0.9095477               0             0.5               0         0
       583     11443       0.3266332               0             0.5               0         0
       584     11442       0.7437186               0             0.5               0         0
       585     11442        0.160804               0             0.5               0         0
       586     11431       0.5778894               0             0.5               0         0
       587     11430       0.9949749               0             0.5               0         0
       588     11430       0.4120603               0             0.5               0         0
       589     11427       0.8291457               0             0.5               0         0
       590     11427       0.2462312               0             0.5               0         0
       591     11428               1       0.6633166             0.5               0         0
       592     11428               1      0.08040201             0.5               0         0
       593     11428       0.4974874               0             0.5               0         0
       594     10745       0.9145728               0             0.5               0         0
       595     10745       0.3316583               0             0.5               0         0
       596     10744               1       0.2512563             0.5               0         0
       597     10744               1       0.8341709             0.5               0         0
       598     10743       0.4170854               0             0.5               0         0
       599     10743               1               0             0.5               0         0
GAL
1
0.0
INTERNAL
1
2
200 1
       600     15212               1               0             0.5               0         0
       601     15212               1       0.4623116             0.5               0         0
       602     15212               1       0.9246231             0.5               0         0
       603     15206       0.6130653               0             0.5               0         0
       604     15206       0.1507538               0             0.5               0         0
       605     15205               1       0.3115578             0.5               0         0
       606     15205               1       0.7738693             0.5               0         0
       607     15204       0.2361809               0             0.5               0         0
       608     15204       0.6984925               0             0.5               0         0
       609     15207        0.160804               0             0.5               0         0
       610     15207       0.6231156               0             0.5               0         0
       611     15209               1       0.9145728             0.5               0         0
       612     15209               1       0.4522613             0.5               0         0
       613     15210      0.01005025               0             0.5               0         0
       614     15210       0.4723618               0             0.5               0         0
       615     15210       0.9346734               0             0.5               0         0
       616     15210               1       0.3969849             0.5               0         0
       617     15210               1       0.8592965             0.5               0         0
       618     15219        0.321608               0             0.5               0         0
       619     15219       0.7839196               0             0.5               0         0
       620     15220       0.2462312               0             0.5               0         0
       621     15220       0.7085427               0             0.5               0         0
       622     15223       0.1708543               0             0.5               0         0
       623     15223       0.6331658               0             0.5               0         0
       624     15224      0.09547739               0             0.5               0         0
       625     15224        0.557789               0             0.5               0         0
       626     15907       0.0201005               0             0.5               0         0
       627     15907       0.4824121               0             0.5               0         0
       628     15907       0.9447236               0             0.5               0         0
       629     15908       0.4070352               0             0.5               0         0
       630     15908       0.8693467               0             0.5               0         0
       631     15908               1       0.3316583             0.5               0         0
       632     15908               1       0.7939699             0.5               0         0
       633     15889       0.2562814               0             0.5               0         0
       634     15889       0.7185929               0             0.5               0         0
       635     15890       0.1809045               0             0.5               0         0
       636     15890       0.6432161               0             0.5               0         0
       637     15901       0.1055276               0             0.5               0         0
       638     15901       0.5678392               0             0.5               0         0
       639     15902      0.03015075               0             0.5               0         0
       640     15902       0.4924623               0             0.5               0         0
       641     15902       0.9547738               0             0.5               0         0
       642     15905       0.4170854               0             0.5               0         0
       643     15905        0.879397               0             0.5               0         0
       644     15906       0.3417085               0             0.5               0         0
       645     15906       0.8040201               0             0.5               0         0
       646     15949       0.2663317               0             0.5               0         0
       647     15949       0.7286432               0             0.5               0         0
       648     15950       0.1909548               0             0.5               0         0
       649     15950       0.6532663               0             0.5               0         0
       650     15953       0.1155779               0             0.5               0         0
       651     15953       0.5778894               0             0.5               0         0
       652     15954        0.040201               0             0.5               0         0
       653     15954       0.5025126               0             0.5               0         0
       654     15954       0.9648241               0             0.5               0         0
       655     15965       0.4271357               0             0.5               0         0
       656     15965       0.8894472               0             0.5               0         0
       657     15966       0.3517588               0             0.5               0         0
       658     15966       0.8140703               0             0.5               0         0
       659     15969       0.2763819               0             0.5               0         0
       660     15969       0.7386935               0             0.5               0         0
       661     15970        0.201005               0             0.5               0         0
       662     15970       0.6633166               0             0.5               0         0
       663     16141       0.1256281               0             0.5               0         0
       664     16141       0.5879397               0             0.5               0         0
       665     16142      0.05025126               0             0.5               0         0
       666     16142       0.5125628               0             0.5               0         0
       667     16142       0.9748744               0             0.5               0         0
       668     16142               1       0.4371859             0.5               0         0
       669     16142               1       0.8994975             0.5               0         0
       670     16143        0.361809               0             0.5               0         0
       671     16143       0.8241206               0             0.5               0         0
       672     16144       0.2864321               0             0.5               0         0
       673     16144       0.7487437               0             0.5               0         0
       674     16155       0.2110553               0             0.5               0         0
       675     16155       0.6733668               0             0.5               0         0
       676     16156       0.1356784               0             0.5               0         0
       677     16156         0.59799               0             0.5               0         0
       678     16156               1      0.06030151             0.5               0         0
       679     16156               1        0.522613             0.5               0         0
       680     16156               1       0.9849246             0.5               0         0
       681     16153       0.4472362               0             0.5               0         0
       682     16153       0.9095477               0             0.5               0         0
       683     16154       0.3718593               0             0.5               0         0
       684     16154       0.8341709               0             0.5               0         0
       685     16197       0.2964824               0             0.5               0         0
       686     16197        0.758794               0             0.5               0         0
       687     16197               1       0.2211055             0.5               0         0
       688     16197               1       0.6834171             0.5               0         0
       689     16196       0.1457286               0             0.5               0         0
       690     16196       0.6080402               0             0.5               0         0
       691     16199      0.07035176               0             0.5               0         0
       692     16199       0.5326633               0             0.5               0         0
       693     16199       0.9949749               0             0.5               0         0
       694     16200       0.4572864               0             0.5               0         0
       695     16200        0.919598               0             0.5               0         0
       696     16211       0.3819095               0             0.5               0         0
       697     16211       0.8442211               0             0.5               0         0
       698     16211               1       0.3065327             0.5               0         0
       699     16211               1       0.7688442             0.5               0         0
       700     16126       0.2311558               0             0.5               0         0
       701     16126       0.6934673               0             0.5               0         0
       702     16129       0.1557789               0             0.5               0         0
       703     16129       0.6180905               0             0.5               0         0
       704     16215               1        0.919598             0.5               0         0
       705     16215               1       0.4572864             0.5               0         0
       706     16215       0.9949749               0             0.5               0         0
       707     16215       0.5326633               0             0.5               0         0
       708     16215      0.07035176               0             0.5               0         0
       709     16214               1       0.6080402             0.5               0         0
       710     16214               1       0.1457286             0.5               0         0
       711     16214       0.6834171               0             0.5               0         0
       712     16214       0.2211055               0             0.5               0         0