# Name file for MODPATH 7, generated by Flopy version 3.3.5.
MPBAS      mp.mpbas
GRBDISV    ml.disv.grb
TDIS       mfsim.tdis
HEAD       ml.hds
BUDGET     ml.cbc
