<<<<<<< HEAD
# File generated by Flopy version 3.3.4 on 01/28/2022 at 18:16:15.
||||||| 1a00768
# File generated by Flopy version 3.3.5 on 01/28/2022 at 12:41:40.
=======
# File generated by Flopy version 3.3.5 on 01/28/2022 at 16:18:59.
>>>>>>> ff83e7fc377772244b48b63e26fb4aea0344e57c
BEGIN options
END options

BEGIN timing
  TDIS6  syn_model.tdis
END timing

BEGIN models
  gwf6  syn_model.nam  syn_model
END models

BEGIN exchanges
END exchanges

BEGIN solutiongroup  1
  ims6  syn_model.ims  syn_model
END solutiongroup  1

