# File generated by Flopy version 3.3.5 on 01/27/2022 at 11:39:43.
BEGIN options
END options

BEGIN timing
  TDIS6  syn_model.tdis
END timing

BEGIN models
  gwf6  syn_model.nam  syn_model
END models

BEGIN exchanges
END exchanges

BEGIN solutiongroup  1
  ims6  syn_model.ims  syn_model
END solutiongroup  1

