# MPSIM package for MODPATH 7 generated by Flopy 3.3.5
mp_rv.mpnam
mp_rv.mplst
4 2 2 2 1 0
mp_rv.mpend
mp_rv.mppth
mp_rv.timeseries
0
1
0
2
1
100 0.01
1
1
3
w2
1
0.0
INTERNAL
1
2
25 1
        25      9493               1               0             0.5               0         0
        26      9494       0.1666667               0             0.5               0         0
        27      9494       0.3333333               0             0.5               0         0
        28      9494             0.5               0             0.5               0         0
        29      9494       0.6666667               0             0.5               0         0
        30      9494       0.8333333               0             0.5               0         0
        31      9494               1               0             0.5               0         0
        32      9496               1       0.8333333             0.5               0         0
        33      9496               1       0.6666667             0.5               0         0
        34      9496               1             0.5             0.5               0         0
        35      9496               1       0.3333333             0.5               0         0
        36      9496               1       0.1666667             0.5               0         0
        37      9496               1               0             0.5               0         0
        38      9496       0.8333333               0             0.5               0         0
        39      9496       0.6666667               0             0.5               0         0
        40      9496             0.5               0             0.5               0         0
        41      9496       0.3333333               0             0.5               0         0
        42      9496       0.1666667               0             0.5               0         0
        43      9495               1               0             0.5               0         0
        44      9495               1       0.1666667             0.5               0         0
        45      9495               1       0.3333333             0.5               0         0
        46      9495               1             0.5             0.5               0         0
        47      9495               1       0.6666667             0.5               0         0
        48      9495               1       0.8333333             0.5               0         0
        49      9493               1               0             0.5               0         0
w1
1
0.0
INTERNAL
1
2
25 1
         0      5711               1               0             0.5               0         0
         1      5712       0.1666667               0             0.5               0         0
         2      5712       0.3333333               0             0.5               0         0
         3      5712             0.5               0             0.5               0         0
         4      5712       0.6666667               0             0.5               0         0
         5      5712       0.8333333               0             0.5               0         0
         6      5712               1               0             0.5               0         0
         7      6063               1       0.8333333             0.5               0         0
         8      6063               1       0.6666667             0.5               0         0
         9      6063               1             0.5             0.5               0         0
        10      6063               1       0.3333333             0.5               0         0
        11      6063               1       0.1666667             0.5               0         0
        12      6063               1               0             0.5               0         0
        13      6063       0.8333333               0             0.5               0         0
        14      6063       0.6666667               0             0.5               0         0
        15      6063             0.5               0             0.5               0         0
        16      6063       0.3333333               0             0.5               0         0
        17      6063       0.1666667               0             0.5               0         0
        18      6062               1               0             0.5               0         0
        19      6062               1       0.1666667             0.5               0         0
        20      6062               1       0.3333333             0.5               0         0
        21      6062               1             0.5             0.5               0         0
        22      6062               1       0.6666667             0.5               0         0
        23      6062               1       0.8333333             0.5               0         0
        24      5711               1               0             0.5               0         0
d1
1
0.0
INTERNAL
1
2
50 1
        50      2939               1               0             0.5               0         0
        51      2933               1       0.4693878             0.5               0         0
        52      2931               1       0.9387755             0.5               0         0
        53      2801               1       0.4081633             0.5               0         0
        54      2795               1        0.877551             0.5               0         0
        55      2665               1       0.3469388             0.5               0         0
        56      2663               1       0.8163266             0.5               0         0
        57      2655               1       0.2857143             0.5               0         0
        58      2527               1        0.755102             0.5               0         0
        59      2519               1       0.2244898             0.5               0         0
        60      2517               1       0.6938776             0.5               0         0
        61      2387               1       0.1632653             0.5               0         0
        62      2381               1       0.6326531             0.5               0         0
        63      2251               1       0.1020408             0.5               0         0
        64      2249               1       0.5714286             0.5               0         0
        65      2241               1      0.04081633             0.5               0         0
        66      2113               1       0.5102041             0.5               0         0
        67      2111               1       0.9795918             0.5               0         0
        68      2103               1       0.4489796             0.5               0         0
        69      1975               1       0.9183673             0.5               0         0
        70      1967               1       0.3877551             0.5               0         0
        71      1966       0.8571429               0             0.5               0         0
        72      1971               1       0.6734694             0.5               0         0
        73      1977               1       0.2040816             0.5               0         0
        74      2107               1       0.7346939             0.5               0         0
        75      2109               1       0.2653061             0.5               0         0
        76      2117               1       0.7959183             0.5               0         0
        77      2245               1       0.3265306             0.5               0         0
        78      2253               1       0.8571429             0.5               0         0
        79      2255               1       0.3877551             0.5               0         0
        80      2385               1       0.9183673             0.5               0         0
        81      2391               1       0.4489796             0.5               0         0
        82      2521               1       0.9795918             0.5               0         0
        83      2523               1       0.5102041             0.5               0         0
        84      2529               1      0.04081633             0.5               0         0
        85      2659               1       0.5714286             0.5               0         0
        86      2661               1       0.1020408             0.5               0         0
        87      2669               1       0.6326531             0.5               0         0
        88      2797               1       0.1632653             0.5               0         0
        89      2805               1       0.6938776             0.5               0         0
        90      2807               1       0.2244898             0.5               0         0
        91      2937               1        0.755102             0.5               0         0
        92      2943               1       0.2857143             0.5               0         0
        93      3073               1       0.8163266             0.5               0         0
        94      3075               1       0.3469388             0.5               0         0
        95      3081        0.877551               0             0.5               0         0
        96      3078       0.4081633               0             0.5               0         0
        97      3071               1      0.06122449             0.5               0         0
        98      3069               1       0.5306122             0.5               0         0
        99      2939               1               0             0.5               0         0
