# Name file for MODPATH 7, generated by Flopy version 3.3.5.
MPBAS      mp_rv.mpbas
GRBDISV    syn_model.disv.grb
TDIS       syn_model.tdis
HEAD       syn_model.hds
BUDGET     syn_model.cbc
