# MPSIM package for MODPATH 7, generated by Flopy.
mp_rv.mpnam
mp_rv.mplst
4 2 2 2 1 0
mp_rv.mpend
mp_rv.mppth
mp_rv.timeseries
0
1
0
2
1
100 0.01
1
1
3
d1
1
0.0
INTERNAL
1
2
50 1
       110      3075               1               0             0.5               0         0
       111      3081       0.5306122               0             0.5               0         0
       112      3078      0.06122449               0             0.5               0         0
       113      3071               1       0.4081633             0.5               0         0
       114      3069               1        0.877551             0.5               0         0
       115      2939               1       0.3469388             0.5               0         0
       116      2933               1       0.8163266             0.5               0         0
       117      2803               1       0.2857143             0.5               0         0
       118      2801               1        0.755102             0.5               0         0
       119      2793               1       0.2244898             0.5               0         0
       120      2665               1       0.6938776             0.5               0         0
       121      2657               1       0.1632653             0.5               0         0
       122      2655               1       0.6326531             0.5               0         0
       123      2525               1       0.1020408             0.5               0         0
       124      2519               1       0.5714286             0.5               0         0
       125      2389               1      0.04081633             0.5               0         0
       126      2387               1       0.5102041             0.5               0         0
       127      2381               1       0.9795918             0.5               0         0
       128      2251               1       0.4489796             0.5               0         0
       129      2249               1       0.9183673             0.5               0         0
       130      2241               1       0.3877551             0.5               0         0
       131      2113               1       0.8571429             0.5               0         0
       132      2105               1       0.3265306             0.5               0         0
       133      2103               1       0.7959183             0.5               0         0
       134      1973               1       0.2653061             0.5               0         0
       135      1967               1       0.7346939             0.5               0         0
       136      1969       0.2040816               0             0.5               0         0
       137      1971               1       0.3265306             0.5               0         0
       138      1979               1       0.8571429             0.5               0         0
       139      2107               1       0.3877551             0.5               0         0
       140      2115               1       0.9183673             0.5               0         0
       141      2117               1       0.4489796             0.5               0         0
       142      2247               1       0.9795918             0.5               0         0
       143      2253               1       0.5102041             0.5               0         0
       144      2255               1      0.04081633             0.5               0         0
       145      2385               1       0.5714286             0.5               0         0
       146      2391               1       0.1020408             0.5               0         0
       147      2521               1       0.6326531             0.5               0         0
       148      2523               1       0.1632653             0.5               0         0
       149      2531               1       0.6938776             0.5               0         0
       150      2659               1       0.2244898             0.5               0         0
       151      2667               1        0.755102             0.5               0         0
       152      2669               1       0.2857143             0.5               0         0
       153      2799               1       0.8163266             0.5               0         0
       154      2805               1       0.3469388             0.5               0         0
       155      2935               1        0.877551             0.5               0         0
       156      2937               1       0.4081633             0.5               0         0
       157      2945               1       0.9387755             0.5               0         0
       158      3073               1       0.4693878             0.5               0         0
       159      3075               1               0             0.5               0         0
w2
1
0.0
INTERNAL
1
2
55 1
        30      5711               1               0             0.5               0         0
        31      5712        0.137931               0             0.5               0         0
        32      5712       0.2758621               0             0.5               0         0
        33      5712       0.4137931               0             0.5               0         0
        34      5712       0.5517241               0             0.5               0         0
        35      5712       0.6896552               0             0.5               0         0
        36      5712       0.8275862               0             0.5               0         0
        37      5712       0.9655172               0             0.5               0         0
        38      6063               1       0.8965517             0.5               0         0
        39      6063               1       0.7586207             0.5               0         0
        40      6063               1       0.6206896             0.5               0         0
        41      6063               1       0.4827586             0.5               0         0
        42      6063               1       0.3448276             0.5               0         0
        43      6063               1       0.2068966             0.5               0         0
        44      6063               1      0.06896552             0.5               0         0
        45      6063       0.9310345               0             0.5               0         0
        46      6063       0.7931035               0             0.5               0         0
        47      6063       0.6551724               0             0.5               0         0
        48      6063       0.5172414               0             0.5               0         0
        49      6063       0.3793103               0             0.5               0         0
        50      6063       0.2413793               0             0.5               0         0
        51      6063       0.1034483               0             0.5               0         0
        52      6062               1      0.03448276             0.5               0         0
        53      6062               1       0.1724138             0.5               0         0
        54      6062               1       0.3103448             0.5               0         0
        55      6062               1       0.4482759             0.5               0         0
        56      6062               1       0.5862069             0.5               0         0
        57      6062               1       0.7241379             0.5               0         0
        58      6062               1        0.862069             0.5               0         0
        59      5711               1               0             0.5               0         0
        85      9493               1               0             0.5               0         0
        86      9494       0.1666667               0             0.5               0         0
        87      9494       0.3333333               0             0.5               0         0
        88      9494             0.5               0             0.5               0         0
        89      9494       0.6666667               0             0.5               0         0
        90      9494       0.8333333               0             0.5               0         0
        91      9494               1               0             0.5               0         0
        92      9496               1       0.8333333             0.5               0         0
        93      9496               1       0.6666667             0.5               0         0
        94      9496               1             0.5             0.5               0         0
        95      9496               1       0.3333333             0.5               0         0
        96      9496               1       0.1666667             0.5               0         0
        97      9496               1               0             0.5               0         0
        98      9496       0.8333333               0             0.5               0         0
        99      9496       0.6666667               0             0.5               0         0
       100      9496             0.5               0             0.5               0         0
       101      9496       0.3333333               0             0.5               0         0
       102      9496       0.1666667               0             0.5               0         0
       103      9495               1               0             0.5               0         0
       104      9495               1       0.1666667             0.5               0         0
       105      9495               1       0.3333333             0.5               0         0
       106      9495               1             0.5             0.5               0         0
       107      9495               1       0.6666667             0.5               0         0
       108      9495               1       0.8333333             0.5               0         0
       109      9493               1               0             0.5               0         0
w1
1
0.0
INTERNAL
1
2
55 1
         0      5711               1               0             0.5               0         0
         1      5712        0.137931               0             0.5               0         0
         2      5712       0.2758621               0             0.5               0         0
         3      5712       0.4137931               0             0.5               0         0
         4      5712       0.5517241               0             0.5               0         0
         5      5712       0.6896552               0             0.5               0         0
         6      5712       0.8275862               0             0.5               0         0
         7      5712       0.9655172               0             0.5               0         0
         8      6063               1       0.8965517             0.5               0         0
         9      6063               1       0.7586207             0.5               0         0
        10      6063               1       0.6206896             0.5               0         0
        11      6063               1       0.4827586             0.5               0         0
        12      6063               1       0.3448276             0.5               0         0
        13      6063               1       0.2068966             0.5               0         0
        14      6063               1      0.06896552             0.5               0         0
        15      6063       0.9310345               0             0.5               0         0
        16      6063       0.7931035               0             0.5               0         0
        17      6063       0.6551724               0             0.5               0         0
        18      6063       0.5172414               0             0.5               0         0
        19      6063       0.3793103               0             0.5               0         0
        20      6063       0.2413793               0             0.5               0         0
        21      6063       0.1034483               0             0.5               0         0
        22      6062               1      0.03448276             0.5               0         0
        23      6062               1       0.1724138             0.5               0         0
        24      6062               1       0.3103448             0.5               0         0
        25      6062               1       0.4482759             0.5               0         0
        26      6062               1       0.5862069             0.5               0         0
        27      6062               1       0.7241379             0.5               0         0
        28      6062               1        0.862069             0.5               0         0
        29      5711               1               0             0.5               0         0
        60      5711               1               0             0.5               0         0
        61      5712       0.1666667               0             0.5               0         0
        62      5712       0.3333333               0             0.5               0         0
        63      5712             0.5               0             0.5               0         0
        64      5712       0.6666667               0             0.5               0         0
        65      5712       0.8333333               0             0.5               0         0
        66      5712               1               0             0.5               0         0
        67      6063               1       0.8333333             0.5               0         0
        68      6063               1       0.6666667             0.5               0         0
        69      6063               1             0.5             0.5               0         0
        70      6063               1       0.3333333             0.5               0         0
        71      6063               1       0.1666667             0.5               0         0
        72      6063               1               0             0.5               0         0
        73      6063       0.8333333               0             0.5               0         0
        74      6063       0.6666667               0             0.5               0         0
        75      6063             0.5               0             0.5               0         0
        76      6063       0.3333333               0             0.5               0         0
        77      6063       0.1666667               0             0.5               0         0
        78      6062               1               0             0.5               0         0
        79      6062               1       0.1666667             0.5               0         0
        80      6062               1       0.3333333             0.5               0         0
        81      6062               1             0.5             0.5               0         0
        82      6062               1       0.6666667             0.5               0         0
        83      6062               1       0.8333333             0.5               0         0
        84      5711               1               0             0.5               0         0
