# MPSIM package for MODPATH 7, generated by Flopy.
mp_rv.mpnam
mp_rv.mplst
4 2 2 2 1 0
mp_rv.mpend
mp_rv.mppth
mp_rv.timeseries
0
1
0
2
1
100 0.01
1
1
3
w2
1
0.0
INTERNAL
1
2
200 1
       250      9493               1               0             0.5               0         0
       251      9494       0.0201005               0             0.5               0         0
       252      9494        0.040201               0             0.5               0         0
       253      9494      0.06030151               0             0.5               0         0
       254      9494      0.08040201               0             0.5               0         0
       255      9494       0.1005025               0             0.5               0         0
       256      9494        0.120603               0             0.5               0         0
       257      9494       0.1407035               0             0.5               0         0
       258      9494        0.160804               0             0.5               0         0
       259      9494       0.1809045               0             0.5               0         0
       260      9494        0.201005               0             0.5               0         0
       261      9494       0.2211055               0             0.5               0         0
       262      9494        0.241206               0             0.5               0         0
       263      9494       0.2613065               0             0.5               0         0
       264      9494        0.281407               0             0.5               0         0
       265      9494       0.3015075               0             0.5               0         0
       266      9494        0.321608               0             0.5               0         0
       267      9494       0.3417085               0             0.5               0         0
       268      9494        0.361809               0             0.5               0         0
       269      9494       0.3819095               0             0.5               0         0
       270      9494       0.4020101               0             0.5               0         0
       271      9494       0.4221106               0             0.5               0         0
       272      9494       0.4422111               0             0.5               0         0
       273      9494       0.4623116               0             0.5               0         0
       274      9494       0.4824121               0             0.5               0         0
       275      9494       0.5025126               0             0.5               0         0
       276      9494        0.522613               0             0.5               0         0
       277      9494       0.5427136               0             0.5               0         0
       278      9494       0.5628141               0             0.5               0         0
       279      9494       0.5829146               0             0.5               0         0
       280      9494       0.6030151               0             0.5               0         0
       281      9494       0.6231156               0             0.5               0         0
       282      9494       0.6432161               0             0.5               0         0
       283      9494       0.6633166               0             0.5               0         0
       284      9494       0.6834171               0             0.5               0         0
       285      9494       0.7035176               0             0.5               0         0
       286      9494       0.7236181               0             0.5               0         0
       287      9494       0.7437186               0             0.5               0         0
       288      9494       0.7638191               0             0.5               0         0
       289      9494       0.7839196               0             0.5               0         0
       290      9494       0.8040201               0             0.5               0         0
       291      9494       0.8241206               0             0.5               0         0
       292      9494       0.8442211               0             0.5               0         0
       293      9494       0.8643216               0             0.5               0         0
       294      9494       0.8844221               0             0.5               0         0
       295      9494       0.9045226               0             0.5               0         0
       296      9494       0.9246231               0             0.5               0         0
       297      9494       0.9447236               0             0.5               0         0
       298      9494       0.9648241               0             0.5               0         0
       299      9494       0.9849246               0             0.5               0         0
       300      9496               1       0.9949749             0.5               0         0
       301      9496               1       0.9748744             0.5               0         0
       302      9496               1       0.9547738             0.5               0         0
       303      9496               1       0.9346734             0.5               0         0
       304      9496               1       0.9145728             0.5               0         0
       305      9496               1       0.8944724             0.5               0         0
       306      9496               1       0.8743719             0.5               0         0
       307      9496               1       0.8542714             0.5               0         0
       308      9496               1       0.8341709             0.5               0         0
       309      9496               1       0.8140703             0.5               0         0
       310      9496               1       0.7939699             0.5               0         0
       311      9496               1       0.7738693             0.5               0         0
       312      9496               1       0.7537689             0.5               0         0
       313      9496               1       0.7336683             0.5               0         0
       314      9496               1       0.7135679             0.5               0         0
       315      9496               1       0.6934673             0.5               0         0
       316      9496               1       0.6733668             0.5               0         0
       317      9496               1       0.6532663             0.5               0         0
       318      9496               1       0.6331658             0.5               0         0
       319      9496               1       0.6130653             0.5               0         0
       320      9496               1       0.5929648             0.5               0         0
       321      9496               1       0.5728643             0.5               0         0
       322      9496               1       0.5527638             0.5               0         0
       323      9496               1       0.5326633             0.5               0         0
       324      9496               1       0.5125628             0.5               0         0
       325      9496               1       0.4924623             0.5               0         0
       326      9496               1       0.4723618             0.5               0         0
       327      9496               1       0.4522613             0.5               0         0
       328      9496               1       0.4321608             0.5               0         0
       329      9496               1       0.4120603             0.5               0         0
       330      9496               1       0.3919598             0.5               0         0
       331      9496               1       0.3718593             0.5               0         0
       332      9496               1       0.3517588             0.5               0         0
       333      9496               1       0.3316583             0.5               0         0
       334      9496               1       0.3115578             0.5               0         0
       335      9496               1       0.2914573             0.5               0         0
       336      9496               1       0.2713568             0.5               0         0
       337      9496               1       0.2512563             0.5               0         0
       338      9496               1       0.2311558             0.5               0         0
       339      9496               1       0.2110553             0.5               0         0
       340      9496               1       0.1909548             0.5               0         0
       341      9496               1       0.1708543             0.5               0         0
       342      9496               1       0.1507538             0.5               0         0
       343      9496               1       0.1306533             0.5               0         0
       344      9496               1       0.1105528             0.5               0         0
       345      9496               1      0.09045226             0.5               0         0
       346      9496               1      0.07035176             0.5               0         0
       347      9496               1      0.05025126             0.5               0         0
       348      9496               1      0.03015075             0.5               0         0
       349      9496               1      0.01005025             0.5               0         0
       350      9496       0.9899498               0             0.5               0         0
       351      9496       0.9698492               0             0.5               0         0
       352      9496       0.9497488               0             0.5               0         0
       353      9496       0.9296482               0             0.5               0         0
       354      9496       0.9095477               0             0.5               0         0
       355      9496       0.8894472               0             0.5               0         0
       356      9496       0.8693467               0             0.5               0         0
       357      9496       0.8492462               0             0.5               0         0
       358      9496       0.8291457               0             0.5               0         0
       359      9496       0.8090453               0             0.5               0         0
       360      9496       0.7889447               0             0.5               0         0
       361      9496       0.7688442               0             0.5               0         0
       362      9496       0.7487437               0             0.5               0         0
       363      9496       0.7286432               0             0.5               0         0
       364      9496       0.7085427               0             0.5               0         0
       365      9496       0.6884422               0             0.5               0         0
       366      9496       0.6683417               0             0.5               0         0
       367      9496       0.6482412               0             0.5               0         0
       368      9496       0.6281407               0             0.5               0         0
       369      9496       0.6080402               0             0.5               0         0
       370      9496       0.5879397               0             0.5               0         0
       371      9496       0.5678392               0             0.5               0         0
       372      9496       0.5477387               0             0.5               0         0
       373      9496       0.5276382               0             0.5               0         0
       374      9496       0.5075377               0             0.5               0         0
       375      9496       0.4874372               0             0.5               0         0
       376      9496       0.4673367               0             0.5               0         0
       377      9496       0.4472362               0             0.5               0         0
       378      9496       0.4271357               0             0.5               0         0
       379      9496       0.4070352               0             0.5               0         0
       380      9496       0.3869347               0             0.5               0         0
       381      9496       0.3668342               0             0.5               0         0
       382      9496       0.3467337               0             0.5               0         0
       383      9496       0.3266332               0             0.5               0         0
       384      9496       0.3065327               0             0.5               0         0
       385      9496       0.2864321               0             0.5               0         0
       386      9496       0.2663317               0             0.5               0         0
       387      9496       0.2462312               0             0.5               0         0
       388      9496       0.2261306               0             0.5               0         0
       389      9496       0.2060301               0             0.5               0         0
       390      9496       0.1859296               0             0.5               0         0
       391      9496       0.1658292               0             0.5               0         0
       392      9496       0.1457286               0             0.5               0         0
       393      9496       0.1256281               0             0.5               0         0
       394      9496       0.1055276               0             0.5               0         0
       395      9496      0.08542714               0             0.5               0         0
       396      9496      0.06532663               0             0.5               0         0
       397      9496      0.04522613               0             0.5               0         0
       398      9496      0.02512563               0             0.5               0         0
       399      9496     0.005025126               0             0.5               0         0
       400      9495               1      0.01507538             0.5               0         0
       401      9495               1      0.03517588             0.5               0         0
       402      9495               1      0.05527638             0.5               0         0
       403      9495               1      0.07537688             0.5               0         0
       404      9495               1      0.09547739             0.5               0         0
       405      9495               1       0.1155779             0.5               0         0
       406      9495               1       0.1356784             0.5               0         0
       407      9495               1       0.1557789             0.5               0         0
       408      9495               1       0.1758794             0.5               0         0
       409      9495               1       0.1959799             0.5               0         0
       410      9495               1       0.2160804             0.5               0         0
       411      9495               1       0.2361809             0.5               0         0
       412      9495               1       0.2562814             0.5               0         0
       413      9495               1       0.2763819             0.5               0         0
       414      9495               1       0.2964824             0.5               0         0
       415      9495               1       0.3165829             0.5               0         0
       416      9495               1       0.3366834             0.5               0         0
       417      9495               1       0.3567839             0.5               0         0
       418      9495               1       0.3768844             0.5               0         0
       419      9495               1       0.3969849             0.5               0         0
       420      9495               1       0.4170854             0.5               0         0
       421      9495               1       0.4371859             0.5               0         0
       422      9495               1       0.4572864             0.5               0         0
       423      9495               1       0.4773869             0.5               0         0
       424      9495               1       0.4974874             0.5               0         0
       425      9495               1        0.517588             0.5               0         0
       426      9495               1       0.5376884             0.5               0         0
       427      9495               1        0.557789             0.5               0         0
       428      9495               1       0.5778894             0.5               0         0
       429      9495               1         0.59799             0.5               0         0
       430      9495               1       0.6180905             0.5               0         0
       431      9495               1       0.6381909             0.5               0         0
       432      9495               1       0.6582915             0.5               0         0
       433      9495               1       0.6783919             0.5               0         0
       434      9495               1       0.6984925             0.5               0         0
       435      9495               1       0.7185929             0.5               0         0
       436      9495               1       0.7386935             0.5               0         0
       437      9495               1        0.758794             0.5               0         0
       438      9495               1       0.7788945             0.5               0         0
       439      9495               1        0.798995             0.5               0         0
       440      9495               1       0.8190955             0.5               0         0
       441      9495               1        0.839196             0.5               0         0
       442      9495               1       0.8592965             0.5               0         0
       443      9495               1        0.879397             0.5               0         0
       444      9495               1       0.8994975             0.5               0         0
       445      9495               1        0.919598             0.5               0         0
       446      9495               1       0.9396985             0.5               0         0
       447      9495               1        0.959799             0.5               0         0
       448      9495               1       0.9798995             0.5               0         0
       449      9493               1               0             0.5               0         0
w1
1
0.0
INTERNAL
1
2
650 1
         0      5711               1               0             0.5               0         0
         1      5712      0.08163265               0             0.5               0         0
         2      5712       0.1632653               0             0.5               0         0
         3      5712        0.244898               0             0.5               0         0
         4      5712       0.3265306               0             0.5               0         0
         5      5712       0.4081633               0             0.5               0         0
         6      5712       0.4897959               0             0.5               0         0
         7      5712       0.5714286               0             0.5               0         0
         8      5712       0.6530612               0             0.5               0         0
         9      5712       0.7346939               0             0.5               0         0
        10      5712       0.8163266               0             0.5               0         0
        11      5712       0.8979592               0             0.5               0         0
        12      5712       0.9795918               0             0.5               0         0
        13      6063               1       0.9387755             0.5               0         0
        14      6063               1       0.8571429             0.5               0         0
        15      6063               1       0.7755102             0.5               0         0
        16      6063               1       0.6938776             0.5               0         0
        17      6063               1       0.6122449             0.5               0         0
        18      6063               1       0.5306122             0.5               0         0
        19      6063               1       0.4489796             0.5               0         0
        20      6063               1       0.3673469             0.5               0         0
        21      6063               1       0.2857143             0.5               0         0
        22      6063               1       0.2040816             0.5               0         0
        23      6063               1        0.122449             0.5               0         0
        24      6063               1      0.04081633             0.5               0         0
        25      6063       0.9591837               0             0.5               0         0
        26      6063        0.877551               0             0.5               0         0
        27      6063       0.7959183               0             0.5               0         0
        28      6063       0.7142857               0             0.5               0         0
        29      6063       0.6326531               0             0.5               0         0
        30      6063       0.5510204               0             0.5               0         0
        31      6063       0.4693878               0             0.5               0         0
        32      6063       0.3877551               0             0.5               0         0
        33      6063       0.3061225               0             0.5               0         0
        34      6063       0.2244898               0             0.5               0         0
        35      6063       0.1428571               0             0.5               0         0
        36      6063      0.06122449               0             0.5               0         0
        37      6062               1      0.02040816             0.5               0         0
        38      6062               1       0.1020408             0.5               0         0
        39      6062               1       0.1836735             0.5               0         0
        40      6062               1       0.2653061             0.5               0         0
        41      6062               1       0.3469388             0.5               0         0
        42      6062               1       0.4285714             0.5               0         0
        43      6062               1       0.5102041             0.5               0         0
        44      6062               1       0.5918368             0.5               0         0
        45      6062               1       0.6734694             0.5               0         0
        46      6062               1        0.755102             0.5               0         0
        47      6062               1       0.8367347             0.5               0         0
        48      6062               1       0.9183673             0.5               0         0
        49      5711               1               0             0.5               0         0
        50      5711               1               0             0.5               0         0
        51      5712       0.0201005               0             0.5               0         0
        52      5712        0.040201               0             0.5               0         0
        53      5712      0.06030151               0             0.5               0         0
        54      5712      0.08040201               0             0.5               0         0
        55      5712       0.1005025               0             0.5               0         0
        56      5712        0.120603               0             0.5               0         0
        57      5712       0.1407035               0             0.5               0         0
        58      5712        0.160804               0             0.5               0         0
        59      5712       0.1809045               0             0.5               0         0
        60      5712        0.201005               0             0.5               0         0
        61      5712       0.2211055               0             0.5               0         0
        62      5712        0.241206               0             0.5               0         0
        63      5712       0.2613065               0             0.5               0         0
        64      5712        0.281407               0             0.5               0         0
        65      5712       0.3015075               0             0.5               0         0
        66      5712        0.321608               0             0.5               0         0
        67      5712       0.3417085               0             0.5               0         0
        68      5712        0.361809               0             0.5               0         0
        69      5712       0.3819095               0             0.5               0         0
        70      5712       0.4020101               0             0.5               0         0
        71      5712       0.4221106               0             0.5               0         0
        72      5712       0.4422111               0             0.5               0         0
        73      5712       0.4623116               0             0.5               0         0
        74      5712       0.4824121               0             0.5               0         0
        75      5712       0.5025126               0             0.5               0         0
        76      5712        0.522613               0             0.5               0         0
        77      5712       0.5427136               0             0.5               0         0
        78      5712       0.5628141               0             0.5               0         0
        79      5712       0.5829146               0             0.5               0         0
        80      5712       0.6030151               0             0.5               0         0
        81      5712       0.6231156               0             0.5               0         0
        82      5712       0.6432161               0             0.5               0         0
        83      5712       0.6633166               0             0.5               0         0
        84      5712       0.6834171               0             0.5               0         0
        85      5712       0.7035176               0             0.5               0         0
        86      5712       0.7236181               0             0.5               0         0
        87      5712       0.7437186               0             0.5               0         0
        88      5712       0.7638191               0             0.5               0         0
        89      5712       0.7839196               0             0.5               0         0
        90      5712       0.8040201               0             0.5               0         0
        91      5712       0.8241206               0             0.5               0         0
        92      5712       0.8442211               0             0.5               0         0
        93      5712       0.8643216               0             0.5               0         0
        94      5712       0.8844221               0             0.5               0         0
        95      5712       0.9045226               0             0.5               0         0
        96      5712       0.9246231               0             0.5               0         0
        97      5712       0.9447236               0             0.5               0         0
        98      5712       0.9648241               0             0.5               0         0
        99      5712       0.9849246               0             0.5               0         0
       100      6063               1       0.9949749             0.5               0         0
       101      6063               1       0.9748744             0.5               0         0
       102      6063               1       0.9547738             0.5               0         0
       103      6063               1       0.9346734             0.5               0         0
       104      6063               1       0.9145728             0.5               0         0
       105      6063               1       0.8944724             0.5               0         0
       106      6063               1       0.8743719             0.5               0         0
       107      6063               1       0.8542714             0.5               0         0
       108      6063               1       0.8341709             0.5               0         0
       109      6063               1       0.8140703             0.5               0         0
       110      6063               1       0.7939699             0.5               0         0
       111      6063               1       0.7738693             0.5               0         0
       112      6063               1       0.7537689             0.5               0         0