# MPSIM package for MODPATH 7 generated by Flopy 3.3.5
mp_rv.mpnam
mp_rv.mplst
4 2 2 2 1 0
mp_rv.mpend
mp_rv.mppth
mp_rv.timeseries
0
1
0
2
1
100 0.01
1
1
3
d1
1
0.0
INTERNAL
1
2
200 1
         0      3076             0.6               0             0.5               0         0
         1      3082       0.5551459       0.6315231             0.5               0         0
         2      3082       0.4285487       0.2827123             0.5               0         0
         3      3084       0.2252648       0.9722252             0.5               0         0
         4      3083       0.9545684       0.7183424             0.5               0         0
         5      3083       0.6336905       0.5319128             0.5               0         0
         6      3083       0.2781137       0.4256956             0.5               0         0
         7      3080       0.9076355       0.4045376             0.5               0         0
         8      3080       0.5418187       0.4673239             0.5               0         0
         9      3080       0.2015024       0.6154561             0.5               0         0
        10      3079       0.9037051       0.8368381             0.5               0         0
        11      3077       0.6641304       0.1202941             0.5               0         0
        12      3077       0.4986126       0.4524907             0.5               0         0
        13      3077       0.4121265       0.8133612             0.5               0         0
        14      3071             0.4       0.1849517             0.5               0         0
        15      3071             0.4       0.5570576             0.5               0         0
        16      3071             0.4       0.9291634             0.5               0         0
        17      3069             0.4       0.3012692             0.5               0         0
        18      3069             0.4       0.6733751             0.5               0         0
        19      2941             0.4      0.04548087             0.5               0         0
        20      2941             0.4       0.4175867             0.5               0         0
        21      2941             0.4       0.7896925             0.5               0         0
        22      2939             0.4       0.1617984             0.5               0         0
        23      2939             0.4       0.5339042             0.5               0         0
        24      2939             0.4         0.90601             0.5               0         0
        25      2933             0.4       0.2781158             0.5               0         0
        26      2933             0.4       0.6502216             0.5               0         0
        27      2931             0.4       0.0223275             0.5               0         0
        28      2931             0.4       0.3944333             0.5               0         0
        29      2931             0.4       0.7665392             0.5               0         0
        30      2803             0.4        0.138645             0.5               0         0
        31      2803             0.4       0.5107508             0.5               0         0
        32      2803             0.4       0.8828566             0.5               0         0
        33      2801             0.4       0.2549625             0.5               0         0
        34      2801             0.4       0.6270683             0.5               0         0
        35      2801             0.4       0.9991741             0.5               0         0
        36      2795             0.4         0.37128             0.5               0         0
        37      2795             0.4       0.7433858             0.5               0         0
        38      2793             0.4       0.1154916             0.5               0         0
        39      2793             0.4       0.4875974             0.5               0         0
        40      2793             0.4       0.8597032             0.5               0         0
        41      2665             0.4       0.2318091             0.5               0         0
        42      2665             0.4       0.6039149             0.5               0         0
        43      2665             0.4       0.9760208             0.5               0         0
        44      2663             0.4       0.3481266             0.5               0         0
        45      2663             0.4       0.7202324             0.5               0         0
        46      2657             0.4      0.09233822             0.5               0         0
        47      2657             0.4        0.464444             0.5               0         0
        48      2657             0.4       0.8365499             0.5               0         0
        49      2655             0.4       0.2086557             0.5               0         0
        50      2655             0.4       0.5807616             0.5               0         0
        51      2655             0.4       0.9528674             0.5               0         0
        52      2527             0.4       0.3249732             0.5               0         0
        53      2527             0.4        0.697079             0.5               0         0
        54      2525             0.4      0.06918484             0.5               0         0
        55      2525             0.4       0.4412907             0.5               0         0
        56      2525             0.4       0.8133965             0.5               0         0
        57      2519             0.4       0.1855023             0.5               0         0
        58      2519             0.4       0.5576081             0.5               0         0
        59      2519             0.4        0.929714             0.5               0         0
        60      2517             0.4       0.3018198             0.5               0         0
        61      2517             0.4       0.6739256             0.5               0         0
        62      2389             0.4      0.04603146             0.5               0         0
        63      2389             0.4       0.4181373             0.5               0         0
        64      2389             0.4       0.7902431             0.5               0         0
        65      2387             0.4       0.1623489             0.5               0         0
        66      2387             0.4       0.5344548             0.5               0         0
        67      2387             0.4       0.9065606             0.5               0         0
        68      2381             0.4       0.2786664             0.5               0         0
        69      2381             0.4       0.6507723             0.5               0         0
        70      2379             0.4      0.02287808             0.5               0         0
        71      2379             0.4       0.3949839             0.5               0         0
        72      2379             0.4       0.7670897             0.5               0         0
        73      2251             0.4       0.1391956             0.5               0         0
        74      2251             0.4       0.5113014             0.5               0         0
        75      2251             0.4       0.8834072             0.5               0         0
        76      2249             0.4        0.255513             0.5               0         0
        77      2249             0.4       0.6276188             0.5               0         0
        78      2249             0.4       0.9997247             0.5               0         0
        79      2243             0.4       0.3718305             0.5               0         0
        80      2243             0.4       0.7439364             0.5               0         0
        81      2241             0.4       0.1160422             0.5               0         0
        82      2241             0.4        0.488148             0.5               0         0
        83      2241             0.4       0.8602539             0.5               0         0
        84      2113             0.4       0.2323597             0.5               0         0
        85      2113             0.4       0.6044655             0.5               0         0
        86      2113             0.4       0.9765713             0.5               0         0
        87      2111             0.4       0.3486772             0.5               0         0
        88      2111             0.4        0.720783             0.5               0         0
        89      2105             0.4      0.09288881             0.5               0         0
        90      2105             0.4       0.4649946             0.5               0         0
        91      2105             0.4       0.8371004             0.5               0         0
        92      2103             0.4       0.2092063             0.5               0         0
        93      2103             0.4       0.5813121             0.5               0         0
        94      2103             0.4        0.953418             0.5               0         0
        95      1975             0.4       0.3255238             0.5               0         0
        96      1975             0.4       0.6976296             0.5               0         0
        97      1973             0.4      0.06973543             0.5               0         0
        98      1973             0.4       0.4418412             0.5               0         0
        99      1973             0.4       0.8139471             0.5               0         0
       100      1967        0.411965       0.1855495             0.5               0         0
       101      1967       0.4982416       0.5464725             0.5               0         0
       102      1967       0.6635643       0.8787614             0.5               0         0
       103      1965       0.9028892       0.1624223             0.5               0         0
       104      1966       0.2005579       0.3839778             0.5               0         0
       105      1966       0.5407505       0.5324085             0.5               0         0
       106      1966       0.9065357       0.5954084             0.5               0         0
       107      1969       0.2770244        0.574466             0.5               0         0
       108      1969       0.6326951        0.468558             0.5               0         0
       109      1969       0.9536839       0.2823135             0.5               0         0
       110      1970       0.2245253       0.0285907             0.5               0         0
       111      1972       0.4280779       0.7182832             0.5               0         0
       112      1972       0.5548784        0.369545             0.5               0         0
       113      1972        0.599946     0.001099851             0.5               0         0
       114      1978             0.6       0.6289954             0.5               0         0
       115      1978             0.6       0.2568895             0.5               0         0
       116      1980             0.6       0.8847837             0.5               0         0
       117      1980             0.6       0.5126778             0.5               0         0
       118      1980             0.6        0.140572             0.5               0         0
       119      2108             0.6       0.7684662             0.5               0         0
       120      2108             0.6       0.3963604             0.5               0         0
       121      2108             0.6      0.02425456             0.5               0         0
       122      2110             0.6       0.6521487             0.5               0         0
       123      2110             0.6       0.2800429             0.5               0         0
       124      2116             0.6        0.907937             0.5               0         0
       125      2116             0.6       0.5358313             0.5               0         0
       126      2116             0.6       0.1637254             0.5               0         0
       127      2118             0.6       0.7916196             0.5               0         0
       128      2118             0.6       0.4195138             0.5               0         0
       129      2118             0.6      0.04740794             0.5               0         0
       130      2246             0.6       0.6753021             0.5               0         0
       131      2246             0.6       0.3031963             0.5               0         0
       132      2248             0.6       0.9310905             0.5               0         0
       133      2248             0.6       0.5589846             0.5               0         0
       134      2248             0.6       0.1868788             0.5               0         0
       135      2254             0.6        0.814773             0.5               0         0
       136      2254             0.6       0.4426672             0.5               0         0
       137      2254             0.6      0.07056131             0.5               0         0
       138      2256             0.6       0.6984555             0.5               0         0
       139      2256             0.6       0.3263496             0.5               0         0
       140      2384             0.6       0.9542438             0.5               0         0
       141      2384             0.6        0.582138             0.5               0         0
       142      2384             0.6       0.2100322             0.5               0         0
       143      2386             0.6       0.8379263             0.5               0         0
       144      2386             0.6       0.4658205             0.5               0         0
       145      2386             0.6      0.09371469             0.5               0         0
       146      2392             0.6       0.7216089             0.5               0         0
       147      2392             0.6        0.349503             0.5               0         0
       148      2394             0.6       0.9773972             0.5               0         0
       149      2394             0.6       0.6052914             0.5               0         0
       150      2394             0.6       0.2331856             0.5               0         0
       151      2522             0.6       0.8610798             0.5               0         0
       152      2522             0.6       0.4889739             0.5               0         0
       153      2522             0.6       0.1168681             0.5               0         0
       154      2524             0.6       0.7447622             0.5               0         0
       155      2524             0.6       0.3726564             0.5               0         0
       156      2524             0.6    0.0005505889             0.5               0         0
       157      2530             0.6       0.6284448             0.5               0         0
       158      2530             0.6       0.2563389             0.5               0         0
       159      2532             0.6       0.8842331             0.5               0         0
       160      2532             0.6       0.5121273             0.5               0         0
       161      2532             0.6       0.1400214             0.5               0         0
       162      2660             0.6       0.7679156             0.5               0         0
       163      2660             0.6       0.3958098             0.5               0         0
       164      2660             0.6      0.02370397             0.5               0         0
       165      2662             0.6       0.6515982             0.5               0         0
       166      2662             0.6       0.2794923             0.5               0         0
       167      2668             0.6       0.9073865             0.5               0         0
       168      2668             0.6       0.5352806             0.5               0         0
       169      2668             0.6       0.1631748             0.5               0         0
       170      2670             0.6        0.791069             0.5               0         0
       171      2670             0.6       0.4189632             0.5               0         0
       172      2670             0.6      0.04685735             0.5               0         0
       173      2798             0.6       0.6747515             0.5               0         0
       174      2798             0.6       0.3026457             0.5               0         0
       175      2800             0.6       0.9305398             0.5               0         0
       176      2800             0.6        0.558434             0.5               0         0
       177      2800             0.6       0.1863282             0.5               0         0
       178      2806             0.6       0.8142224             0.5               0         0
       179      2806             0.6       0.4421166             0.5               0         0
       180      2806             0.6      0.07001072             0.5               0         0
       181      2808             0.6       0.6979049             0.5               0         0
       182      2808             0.6       0.3257991             0.5               0         0
       183      2936             0.6       0.9536933             0.5               0         0
       184      2936             0.6       0.5815874             0.5               0         0
       185      2936             0.6       0.2094816             0.5               0         0
       186      2938             0.6       0.8373758             0.5               0         0
       187      2938             0.6       0.4652699             0.5               0         0
       188      2938             0.6       0.0931641             0.5               0         0
       189      2944             0.6       0.7210582             0.5               0         0
       190      2944             0.6       0.3489524             0.5               0         0
       191      2946             0.6       0.9768466             0.5               0         0
       192      2946             0.6       0.6047408             0.5               0         0
       193      2946             0.6        0.232635             0.5               0         0
       194      3074             0.6       0.8605291             0.5               0         0
       195      3074             0.6       0.4884233             0.5               0         0
       196      3074             0.6       0.1163175             0.5               0         0
       197      3076             0.6       0.7442117             0.5               0         0
       198      3076             0.6       0.3721058             0.5               0         0
       199      3076             0.6               0             0.5               0         0
w1
1
0.0
INTERNAL
1
2
200 1
         0      5356             0.6               0             0.5               0         0
         1      5362       0.5975222        0.949563             0.5               0         0
         2      5362       0.5950444       0.8991261             0.5               0         0
         3      5362       0.5925665       0.8486891             0.5               0         0
         4      5362       0.5856964       0.7986848             0.5               0         0
         5      5362       0.5782868       0.7487335             0.5               0         0
         6      5362       0.5708773       0.6987823             0.5               0         0
         7      5362       0.5596706       0.6495864             0.5               0         0
         8      5362       0.5474006        0.600602             0.5               0         0
         9      5362       0.5351306       0.5516176             0.5               0         0
        10      5362       0.5196745       0.5035996             0.5               0         0
        11      5362       0.5026623       0.4560537             0.5               0         0
        12      5362       0.4856501       0.4085078             0.5               0         0
        13      5362       0.4660625       0.3620287             0.5               0         0
        14      5362        0.444472       0.3163792             0.5               0         0
        15      5362       0.4228814       0.2707298             0.5               0         0
        16      5362       0.3993104       0.2261388             0.5               0         0
        17      5362       0.3733494       0.1828254             0.5               0         0
        18      5362       0.3473883        0.139512             0.5               0         0
        19      5362       0.3200109      0.09714506             0.5               0         0
        20      5362       0.2899294      0.05658485             0.5               0         0
        21      5362       0.2598479      0.01602465             0.5               0         0
        22      5364       0.2288685       0.9762013             0.5               0         0
        23      5364       0.1949563       0.9387849             0.5               0         0
        24      5364       0.1610441       0.9013685             0.5               0         0
        25      5364       0.1266938       0.8643901             0.5               0         0
        26      5364      0.08927741       0.8304779             0.5               0         0
        27      5364      0.05186101       0.7965657             0.5               0         0
        28      5364       0.0143955       0.7627133             0.5               0         0
        29      5363       0.9738353       0.7326317             0.5               0         0
        30      5363       0.9332751       0.7025502             0.5               0         0
        31      5363       0.8927149       0.6724688             0.5               0         0
        32      5363       0.8496596       0.6461214             0.5               0         0
        33      5363       0.8063462       0.6201603             0.5               0         0
        34      5363       0.7630328       0.5941993             0.5               0         0
        35      5363       0.7178578        0.571721             0.5               0         0
        36      5363       0.6722084       0.5501304             0.5               0         0
        37      5363        0.626559       0.5285398             0.5               0         0
        38      5363       0.5796057       0.5100968             0.5               0         0
        39      5363       0.5320598       0.4930847             0.5               0         0
        40      5363       0.4845139       0.4760725             0.5               0         0
        41      5363       0.4361364       0.4618019             0.5               0         0
        42      5363       0.3871519       0.4495319             0.5               0         0
        43      5363       0.3381675        0.437262             0.5               0         0
        44      5363       0.2887299       0.4272703             0.5               0         0
        45      5363       0.2387787       0.4198608             0.5               0         0
        46      5363       0.1888274       0.4124512             0.5               0         0
        47      5363       0.1387016        0.406814             0.5               0         0
        48      5363      0.08826468       0.4043362             0.5               0         0
        49      5363      0.03782772       0.4018584             0.5               0         0
        50      5360       0.9873908       0.4006194             0.5               0         0
        51      5360       0.9369538       0.4030973             0.5               0         0
        52      5360       0.8865168       0.4055751             0.5               0         0
        53      5360       0.8361482       0.4087464             0.5               0         0
        54      5360       0.7861969        0.416156             0.5               0         0
        55      5360       0.7362458       0.4235655             0.5               0         0
        56      5360       0.6863247        0.431127             0.5               0         0
        57      5360       0.6373403        0.443397             0.5               0         0
        58      5360       0.5883558       0.4556669             0.5               0         0
        59      5360       0.5393714       0.4679369             0.5               0         0
        60      5360       0.4917131       0.4845786             0.5               0         0
        61      5360       0.4441673       0.5015908             0.5               0         0
        62      5360       0.3966214        0.518603             0.5               0         0
        63      5360       0.3506163       0.5393351             0.5               0         0
        64      5360       0.3049669       0.5609257             0.5               0         0
        65      5360       0.2593174       0.5825163             0.5               0         0
        66      5360       0.2153105       0.6071798             0.5               0         0
        67      5360       0.1719971       0.6331409             0.5               0         0
        68      5360       0.1286837        0.659102             0.5               0         0
        69      5360        0.087005       0.6875095             0.5               0         0
        70      5360       0.0464448        0.717591             0.5               0         0
        71      5360       0.0058846       0.7476725             0.5               0         0
        72      5359       0.9668472       0.7796095             0.5               0         0
        73      5359       0.9294308       0.8135217             0.5               0         0
        74      5359       0.8920144        0.847434             0.5               0         0
        75      5359       0.8559121       0.8826603             0.5               0         0
        76      5359       0.8219998       0.9200767             0.5               0         0
        77      5359       0.7880876       0.9574931             0.5               0         0
        78      5359       0.7551929       0.9957445             0.5               0         0
        79      5357       0.7251114      0.03630475             0.5               0         0
        80      5357       0.6950299      0.07686496             0.5               0         0
        81      5357       0.6655922       0.1178553             0.5               0         0
        82      5357       0.6396312       0.1611687             0.5               0         0
        83      5357       0.6136701       0.2044821             0.5               0         0
        84      5357       0.5879139        0.247905             0.5               0         0
        85      5357       0.5663233       0.2935545             0.5               0         0
        86      5357       0.5447327        0.339204             0.5               0         0
        87      5357       0.5231422       0.3848534             0.5               0         0
        88      5357       0.5058438       0.4322808             0.5               0         0
        89      5357       0.4888316       0.4798267             0.5               0         0
        90      5357       0.4718194       0.5273725             0.5               0         0
        91      5357       0.4587344       0.5761098             0.5               0         0
        92      5357       0.4464644       0.6250942             0.5               0         0
        93      5357       0.4341945       0.6740786             0.5               0         0
        94      5357       0.4254179       0.7237579             0.5               0         0
        95      5357       0.4180084       0.7737092             0.5               0         0
        96      5357       0.4105988       0.8236604             0.5               0         0
        97      5357       0.4061945       0.8739076             0.5               0         0
        98      5357       0.4037167       0.9243445             0.5               0         0
        99      5357       0.4012389       0.9747815             0.5               0         0
       100      5351       0.4012389      0.02521848             0.5               0         0
       101      5351       0.4037167      0.07565544             0.5               0         0
       102      5351       0.4061945       0.1260924             0.5               0         0
       103      5351       0.4105988       0.1763396             0.5               0         0
       104      5351       0.4180084       0.2262909             0.5               0         0
       105      5351       0.4254179       0.2762421             0.5               0         0
       106      5351       0.4341945       0.3259214             0.5               0         0
       107      5351       0.4464644       0.3749058             0.5               0         0
       108      5351       0.4587344       0.4238903             0.5               0         0
       109      5351       0.4718194       0.4726274             0.5               0         0
       110      5351       0.4888316       0.5201733             0.5               0         0
       111      5351       0.5058438       0.5677192             0.5               0         0
       112      5351       0.5231422       0.6151466             0.5               0         0