MODPATH_TIMESERIES_FILE         7         2
    2   0.0000000000E+00  0.0000000000E+00  0.0000000000E+00  0.0000000000E+00
END HEADER
       0       1  0.0000000000E+00         1    1       110      3075  0.1000000000E+01  0.0000000000E+00  0.5000000000E+00  0.2087500000E+04  0.3675000000E+04  0.2500000000E+02         1
       0       1  0.0000000000E+00         2    1       111      3081  0.5306122000E+00  0.0000000000E+00  0.5000000000E+00  0.2081632652E+04  0.3662500000E+04  0.2500000000E+02         1
       0       1  0.0000000000E+00         3    1       112      3078  0.6122449000E-01  0.0000000000E+00  0.5000000000E+00  0.2063265306E+04  0.3662500000E+04  0.2500000000E+02         1
       0       1  0.0000000000E+00         4    1       113      3071  0.1000000000E+01  0.4081633000E+00  0.5000000000E+00  0.2062500000E+04  0.3680102041E+04  0.2500000000E+02         1
       0       1  0.0000000000E+00         5    1       114      3069  0.1000000000E+01  0.8775510000E+00  0.5000000000E+00  0.2062500000E+04  0.3698469387E+04  0.2500000000E+02         1
       0       1  0.0000000000E+00         6    1       115      2939  0.1000000000E+01  0.3469388000E+00  0.5000000000E+00  0.2062500000E+04  0.3716836735E+04  0.2500000000E+02         1
       0       1  0.0000000000E+00         7    1       116      2933  0.1000000000E+01  0.8163266000E+00  0.5000000000E+00  0.2062500000E+04  0.3735204082E+04  0.2500000000E+02         1
       0       1  0.0000000000E+00         8    1       117      2803  0.1000000000E+01  0.2857143000E+00  0.5000000000E+00  0.2062500000E+04  0.3753571429E+04  0.2500000000E+02         1
       0       1  0.0000000000E+00         9    1       118      2801  0.1000000000E+01  0.7551020000E+00  0.5000000000E+00  0.2062500000E+04  0.3771938775E+04  0.2500000000E+02         1
       0       1  0.0000000000E+00        10    1       119      2793  0.1000000000E+01  0.2244898000E+00  0.5000000000E+00  0.2062500000E+04  0.3790306123E+04  0.2500000000E+02         1
       0       1  0.0000000000E+00        11    1       120      2665  0.1000000000E+01  0.6938776000E+00  0.5000000000E+00  0.2062500000E+04  0.3808673470E+04  0.2500000000E+02         1
       0       1  0.0000000000E+00        12    1       121      2657  0.1000000000E+01  0.1632653000E+00  0.5000000000E+00  0.2062500000E+04  0.3827040816E+04  0.2500000000E+02         1
       0       1  0.0000000000E+00        13    1       122      2655  0.1000000000E+01  0.6326531000E+00  0.5000000000E+00  0.2062500000E+04  0.3845408164E+04  0.2500000000E+02         1
       0       1  0.0000000000E+00        14    1       123      2525  0.1000000000E+01  0.1020408000E+00  0.5000000000E+00  0.2062500000E+04  0.3863775510E+04  0.2500000000E+02         1
       0       1  0.0000000000E+00        15    1       124      2519  0.1000000000E+01  0.5714286000E+00  0.5000000000E+00  0.2062500000E+04  0.3882142857E+04  0.2500000000E+02         1
       0       1  0.0000000000E+00        16    1       125      2389  0.1000000000E+01  0.4081633000E-01  0.5000000000E+00  0.2062500000E+04  0.3900510204E+04  0.2500000000E+02         1
       0       1  0.0000000000E+00        17    1       126      2387  0.1000000000E+01  0.5102041000E+00  0.5000000000E+00  0.2062500000E+04  0.3918877551E+04  0.2500000000E+02         1
       0       1  0.0000000000E+00        18    1       127      2381  0.1000000000E+01  0.9795918000E+00  0.5000000000E+00  0.2062500000E+04  0.3937244897E+04  0.2500000000E+02         1
       0       1  0.0000000000E+00        19    1       128      2251  0.1000000000E+01  0.4489796000E+00  0.5000000000E+00  0.2062500000E+04  0.3955612245E+04  0.2500000000E+02         1
       0       1  0.0000000000E+00        20    1       129      2249  0.1000000000E+01  0.9183673000E+00  0.5000000000E+00  0.2062500000E+04  0.3973979591E+04  0.2500000000E+02         1
       0       1  0.0000000000E+00        21    1       130      2241  0.1000000000E+01  0.3877551000E+00  0.5000000000E+00  0.2062500000E+04  0.3992346939E+04  0.2500000000E+02         1
       0       1  0.0000000000E+00        22    1       131      2113  0.1000000000E+01  0.8571429000E+00  0.5000000000E+00  0.2062500000E+04  0.4010714286E+04  0.2500000000E+02         1
       0       1  0.0000000000E+00        23    1       132      2105  0.1000000000E+01  0.3265306000E+00  0.5000000000E+00  0.2062500000E+04  0.4029081633E+04  0.2500000000E+02         1
       0       1  0.0000000000E+00        24    1       133      2103  0.1000000000E+01  0.7959183000E+00  0.5000000000E+00  0.2062500000E+04  0.4047448979E+04  0.2500000000E+02         1
       0       1  0.0000000000E+00        25    1       134      1973  0.1000000000E+01  0.2653061000E+00  0.5000000000E+00  0.2062500000E+04  0.4065816326E+04  0.2500000000E+02         1
       0       1  0.0000000000E+00        26    1       135      1967  0.1000000000E+01  0.7346939000E+00  0.5000000000E+00  0.2062500000E+04  0.4084183674E+04  0.2500000000E+02         1
       0       1  0.0000000000E+00        27    1       136      1969  0.2040816000E+00  0.0000000000E+00  0.5000000000E+00  0.2077551020E+04  0.4087500000E+04  0.2500000000E+02         1
       0       1  0.0000000000E+00        28    1       137      1971  0.1000000000E+01  0.3265306000E+00  0.5000000000E+00  0.2087500000E+04  0.4079081632E+04  0.2500000000E+02         1
       0       1  0.0000000000E+00        29    1       138      1979  0.1000000000E+01  0.8571429000E+00  0.5000000000E+00  0.2087500000E+04  0.4060714286E+04  0.2500000000E+02         1
       0       1  0.0000000000E+00        30    1       139      2107  0.1000000000E+01  0.3877551000E+00  0.5000000000E+00  0.2087500000E+04  0.4042346939E+04  0.2500000000E+02         1
       0       1  0.0000000000E+00        31    1       140      2115  0.1000000000E+01  0.9183673000E+00  0.5000000000E+00  0.2087500000E+04  0.4023979591E+04  0.2500000000E+02         1
       0       1  0.0000000000E+00        32    1       141      2117  0.1000000000E+01  0.4489796000E+00  0.5000000000E+00  0.2087500000E+04  0.4005612245E+04  0.2500000000E+02         1
       0       1  0.0000000000E+00        33    1       142      2247  0.1000000000E+01  0.9795918000E+00  0.5000000000E+00  0.2087500000E+04  0.3987244897E+04  0.2500000000E+02         1
       0       1  0.0000000000E+00        34    1       143      2253  0.1000000000E+01  0.5102041000E+00  0.5000000000E+00  0.2087500000E+04  0.3968877551E+04  0.2500000000E+02         1
       0       1  0.0000000000E+00        35    1       144      2255  0.1000000000E+01  0.4081633000E-01  0.5000000000E+00  0.2087500000E+04  0.3950510204E+04  0.2500000000E+02         1
       0       1  0.0000000000E+00        36    1       145      2385  0.1000000000E+01  0.5714286000E+00  0.5000000000E+00  0.2087500000E+04  0.3932142857E+04  0.2500000000E+02         1
       0       1  0.0000000000E+00        37    1       146      2391  0.1000000000E+01  0.1020408000E+00  0.5000000000E+00  0.2087500000E+04  0.3913775510E+04  0.2500000000E+02         1
       0       1  0.0000000000E+00        38    1       147      2521  0.1000000000E+01  0.6326531000E+00  0.5000000000E+00  0.2087500000E+04  0.3895408164E+04  0.2500000000E+02         1
       0       1  0.0000000000E+00        39    1       148      2523  0.1000000000E+01  0.1632653000E+00  0.5000000000E+00  0.2087500000E+04  0.3877040816E+04  0.2500000000E+02         1
       0       1  0.0000000000E+00        40    1       149      2531  0.1000000000E+01  0.6938776000E+00  0.5000000000E+00  0.2087500000E+04  0.3858673470E+04  0.2500000000E+02         1
       0       1  0.0000000000E+00        41    1       150      2659  0.1000000000E+01  0.2244898000E+00  0.5000000000E+00  0.2087500000E+04  0.3840306123E+04  0.2500000000E+02         1
       0       1  0.0000000000E+00        42    1       151      2667  0.1000000000E+01  0.7551020000E+00  0.5000000000E+00  0.2087500000E+04  0.3821938775E+04  0.2500000000E+02         1
       0       1  0.0000000000E+00        43    1       152      2669  0.1000000000E+01  0.2857143000E+00  0.5000000000E+00  0.2087500000E+04  0.3803571429E+04  0.2500000000E+02         1
       0       1  0.0000000000E+00        44    1       153      2799  0.1000000000E+01  0.8163266000E+00  0.5000000000E+00  0.2087500000E+04  0.3785204082E+04  0.2500000000E+02         1
       0       1  0.0000000000E+00        45    1       154      2805  0.1000000000E+01  0.3469388000E+00  0.5000000000E+00  0.2087500000E+04  0.3766836735E+04  0.2500000000E+02         1
       0       1  0.0000000000E+00        46    1       155      2935  0.1000000000E+01  0.8775510000E+00  0.5000000000E+00  0.2087500000E+04  0.3748469387E+04  0.2500000000E+02         1
       0       1  0.0000000000E+00        47    1       156      2937  0.1000000000E+01  0.4081633000E+00  0.5000000000E+00  0.2087500000E+04  0.3730102041E+04  0.2500000000E+02         1
       0       1  0.0000000000E+00        48    1       157      2945  0.1000000000E+01  0.9387755000E+00  0.5000000000E+00  0.2087500000E+04  0.3711734694E+04  0.2500000000E+02         1
       0       1  0.0000000000E+00        49    1       158      3073  0.1000000000E+01  0.4693878000E+00  0.5000000000E+00  0.2087500000E+04  0.3693367348E+04  0.2500000000E+02         1
       0       1  0.0000000000E+00        50    1       159      3075  0.1000000000E+01  0.0000000000E+00  0.5000000000E+00  0.2087500000E+04  0.3675000000E+04  0.2500000000E+02         1
       0       1  0.0000000000E+00        51    2        30      5711  0.1000000000E+01  0.0000000000E+00  0.5000000000E+00  0.2543750000E+04  0.2700000000E+04  0.2500000000E+02         1
       0       1  0.0000000000E+00        52    2        31      5712  0.1379310000E+00  0.0000000000E+00  0.5000000000E+00  0.2544612069E+04  0.2700000000E+04  0.2500000000E+02         1
       0       1  0.0000000000E+00        53    2        32      5712  0.2758621000E+00  0.0000000000E+00  0.5000000000E+00  0.2545474138E+04  0.2700000000E+04  0.2500000000E+02         1
       0       1  0.0000000000E+00        54    2        33      5712  0.4137931000E+00  0.0000000000E+00  0.5000000000E+00  0.2546336207E+04  0.2700000000E+04  0.2500000000E+02         1
       0       1  0.0000000000E+00        55    2        34      5712  0.5517241000E+00  0.0000000000E+00  0.5000000000E+00  0.2547198276E+04  0.2700000000E+04  0.2500000000E+02         1
       0       1  0.0000000000E+00        56    2        35      5712  0.6896552000E+00  0.0000000000E+00  0.5000000000E+00  0.2548060345E+04  0.2700000000E+04  0.2500000000E+02         1
       0       1  0.0000000000E+00        57    2        36      5712  0.8275862000E+00  0.0000000000E+00  0.5000000000E+00  0.2548922414E+04  0.2700000000E+04  0.2500000000E+02         1
       0       1  0.0000000000E+00        58    2        37      5712  0.9655172000E+00  0.0000000000E+00  0.5000000000E+00  0.2549784482E+04  0.2700000000E+04  0.2500000000E+02         1
       0       1  0.0000000000E+00        59    2        38      6063  0.1000000000E+01  0.8965517000E+00  0.5000000000E+00  0.2550000000E+04  0.2699353448E+04  0.2500000000E+02         1
       0       1  0.0000000000E+00        60    2        39      6063  0.1000000000E+01  0.7586207000E+00  0.5000000000E+00  0.2550000000E+04  0.2698491379E+04  0.2500000000E+02         1
       0       1  0.0000000000E+00        61    2        40      6063  0.1000000000E+01  0.6206896000E+00  0.5000000000E+00  0.2550000000E+04  0.2697629310E+04  0.2500000000E+02         1
       0       1  0.0000000000E+00        62    2        41      6063  0.1000000000E+01  0.4827586000E+00  0.5000000000E+00  0.2550000000E+04  0.2696767241E+04  0.2500000000E+02         1
       0       1  0.0000000000E+00        63    2        42      6063  0.1000000000E+01  0.3448276000E+00  0.5000000000E+00  0.2550000000E+04  0.2695905172E+04  0.2500000000E+02         1
       0       1  0.0000000000E+00        64    2        43      6063  0.1000000000E+01  0.2068966000E+00  0.5000000000E+00  0.2550000000E+04  0.2695043104E+04  0.2500000000E+02         1
       0       1  0.0000000000E+00        65    2        44      6063  0.1000000000E+01  0.6896552000E-01  0.5000000000E+00  0.2550000000E+04  0.2694181034E+04  0.2500000000E+02         1
       0       1  0.0000000000E+00        66    2        45      6063  0.9310345000E+00  0.0000000000E+00  0.5000000000E+00  0.2549568966E+04  0.2693750000E+04  0.2500000000E+02         1
       0       1  0.0000000000E+00        67    2        46      6063  0.7931035000E+00  0.0000000000E+00  0.5000000000E+00  0.2548706897E+04  0.2693750000E+04  0.2500000000E+02         1
       0       1  0.0000000000E+00        68    2        47      6063  0.6551724000E+00  0.0000000000E+00  0.5000000000E+00  0.2547844828E+04  0.2693750000E+04  0.2500000000E+02         1
       0       1  0.0000000000E+00        69    2        48      6063  0.5172414000E+00  0.0000000000E+00  0.5000000000E+00  0.2546982759E+04  0.2693750000E+04  0.2500000000E+02         1
       0       1  0.0000000000E+00        70    2        49      6063  0.3793103000E+00  0.0000000000E+00  0.5000000000E+00  0.2546120689E+04  0.2693750000E+04  0.2500000000E+02         1
       0       1  0.0000000000E+00        71    2        50      6063  0.2413793000E+00  0.0000000000E+00  0.5000000000E+00  0.2545258621E+04  0.2693750000E+04  0.2500000000E+02         1
       0       1  0.0000000000E+00        72    2        51      6063  0.1034483000E+00  0.0000000000E+00  0.5000000000E+00  0.2544396552E+04  0.2693750000E+04  0.2500000000E+02         1
       0       1  0.0000000000E+00        73    2        52      6062  0.1000000000E+01  0.3448276000E-01  0.5000000000E+00  0.2543750000E+04  0.2693965517E+04  0.2500000000E+02         1
       0       1  0.0000000000E+00        74    2        53      6062  0.1000000000E+01  0.1724138000E+00  0.5000000000E+00  0.2543750000E+04  0.2694827586E+04  0.2500000000E+02         1
       0       1  0.0000000000E+00        75    2        54      6062  0.1000000000E+01  0.3103448000E+00  0.5000000000E+00  0.2543750000E+04  0.2695689655E+04  0.2500000000E+02         1
       0       1  0.0000000000E+00        76    2        55      6062  0.1000000000E+01  0.4482759000E+00  0.5000000000E+00  0.2543750000E+04  0.2696551724E+04  0.2500000000E+02         1
       0       1  0.0000000000E+00        77    2        56      6062  0.1000000000E+01  0.5862069000E+00  0.5000000000E+00  0.2543750000E+04  0.2697413793E+04  0.2500000000E+02         1
       0       1  0.0000000000E+00        78    2        57      6062  0.1000000000E+01  0.7241379000E+00  0.5000000000E+00  0.2543750000E+04  0.2698275862E+04  0.2500000000E+02         1
       0       1  0.0000000000E+00        79    2        58      6062  0.1000000000E+01  0.8620690000E+00  0.5000000000E+00  0.2543750000E+04  0.2699137931E+04  0.2500000000E+02         1
       0       1  0.0000000000E+00        80    2        59      5711  0.1000000000E+01  0.0000000000E+00  0.5000000000E+00  0.2543750000E+04  0.2700000000E+04  0.2500000000E+02         1
       0       1  0.0000000000E+00        81    2        85      9493  0.1000000000E+01  0.0000000000E+00  0.5000000000E+00  0.1218750000E+04  0.1368750000E+04  0.2500000000E+02         1
       0       1  0.0000000000E+00        82    2        86      9494  0.1666667000E+00  0.0000000000E+00  0.5000000000E+00  0.1219791667E+04  0.1368750000E+04  0.2500000000E+02         1
       0       1  0.0000000000E+00        83    2        87      9494  0.3333333000E+00  0.0000000000E+00  0.5000000000E+00  0.1220833333E+04  0.1368750000E+04  0.2500000000E+02         1
       0       1  0.0000000000E+00        84    2        88      9494  0.5000000000E+00  0.0000000000E+00  0.5000000000E+00  0.1221875000E+04  0.1368750000E+04  0.2500000000E+02         1
       0       1  0.0000000000E+00        85    2        89      9494  0.6666667000E+00  0.0000000000E+00  0.5000000000E+00  0.1222916667E+04  0.1368750000E+04  0.2500000000E+02         1
       0       1  0.0000000000E+00        86    2        90      9494  0.8333333000E+00  0.0000000000E+00  0.5000000000E+00  0.1223958333E+04  0.1368750000E+04  0.2500000000E+02         1
       0       1  0.0000000000E+00        87    2        91      9494  0.1000000000E+01  0.0000000000E+00  0.5000000000E+00  0.1225000000E+04  0.1368750000E+04  0.2500000000E+02         1
       0       1  0.0000000000E+00        88    2        92      9496  0.1000000000E+01  0.8333333000E+00  0.5000000000E+00  0.1225000000E+04  0.1367708333E+04  0.2500000000E+02         1
       0       1  0.0000000000E+00        89    2        93      9496  0.1000000000E+01  0.6666667000E+00  0.5000000000E+00  0.1225000000E+04  0.1366666667E+04  0.2500000000E+02         1
       0       1  0.0000000000E+00        90    2        94      9496  0.1000000000E+01  0.5000000000E+00  0.5000000000E+00  0.1225000000E+04  0.1365625000E+04  0.2500000000E+02         1
       0       1  0.0000000000E+00        91    2        95      9496  0.1000000000E+01  0.3333333000E+00  0.5000000000E+00  0.1225000000E+04  0.1364583333E+04  0.2500000000E+02         1
       0       1  0.0000000000E+00        92    2        96      9496  0.1000000000E+01  0.1666667000E+00  0.5000000000E+00  0.1225000000E+04  0.1363541667E+04  0.2500000000E+02         1
       0       1  0.0000000000E+00        93    2        97      9496  0.1000000000E+01  0.0000000000E+00  0.5000000000E+00  0.1225000000E+04  0.1362500000E+04  0.2500000000E+02         1
       0       1  0.0000000000E+00        94    2        98      9496  0.8333333000E+00  0.0000000000E+00  0.5000000000E+00  0.1223958333E+04  0.1362500000E+04  0.2500000000E+02         1
       0       1  0.0000000000E+00        95    2        99      9496  0.6666667000E+00  0.0000000000E+00  0.5000000000E+00  0.1222916667E+04  0.1362500000E+04  0.2500000000E+02         1
       0       1  0.0000000000E+00        96    2       100      9496  0.5000000000E+00  0.0000000000E+00  0.5000000000E+00  0.1221875000E+04  0.1362500000E+04  0.2500000000E+02         1
       0       1  0.0000000000E+00        97    2       101      9496  0.3333333000E+00  0.0000000000E+00  0.5000000000E+00  0.1220833333E+04  0.1362500000E+04  0.2500000000E+02         1
       0       1  0.0000000000E+00        98    2       102      9496  0.1666667000E+00  0.0000000000E+00  0.5000000000E+00  0.1219791667E+04  0.1362500000E+04  0.2500000000E+02         1
       0       1  0.0000000000E+00        99    2       103      9495  0.1000000000E+01  0.0000000000E+00  0.5000000000E+00  0.1218750000E+04  0.1362500000E+04  0.2500000000E+02         1
       0       1  0.0000000000E+00       100    2       104      9495  0.1000000000E+01  0.1666667000E+00  0.5000000000E+00  0.1218750000E+04  0.1363541667E+04  0.2500000000E+02         1
       0       1  0.0000000000E+00       101    2       105      9495  0.1000000000E+01  0.3333333000E+00  0.5000000000E+00  0.1218750000E+04  0.1364583333E+04  0.2500000000E+02         1
       0       1  0.0000000000E+00       102    2       106      9495  0.1000000000E+01  0.5000000000E+00  0.5000000000E+00  0.1218750000E+04  0.1365625000E+04  0.2500000000E+02         1
       0       1  0.0000000000E+00       103    2       107      9495  0.1000000000E+01  0.6666667000E+00  0.5000000000E+00  0.1218750000E+04  0.1366666667E+04  0.2500000000E+02         1
       0       1  0.0000000000E+00       104    2       108      9495  0.1000000000E+01  0.8333333000E+00  0.5000000000E+00  0.1218750000E+04  0.1367708333E+04  0.2500000000E+02         1
       0       1  0.0000000000E+00       105    2       109      9493  0.1000000000E+01  0.0000000000E+00  0.5000000000E+00  0.1218750000E+04  0.1368750000E+04  0.2500000000E+02         1
       0       1  0.0000000000E+00       106    3         0      5711  0.1000000000E+01  0.0000000000E+00  0.5000000000E+00  0.2543750000E+04  0.2700000000E+04  0.2500000000E+02         1
       0       1  0.0000000000E+00       107    3         1      5712  0.1379310000E+00  0.0000000000E+00  0.5000000000E+00  0.2544612069E+04  0.2700000000E+04  0.2500000000E+02         1
       0       1  0.0000000000E+00       108    3         2      5712  0.2758621000E+00  0.0000000000E+00  0.5000000000E+00  0.2545474138E+04  0.2700000000E+04  0.2500000000E+02         1
       0       1  0.0000000000E+00       109    3         3      5712  0.4137931000E+00  0.0000000000E+00  0.5000000000E+00  0.2546336207E+04  0.2700000000E+04  0.2500000000E+02         1
       0       1  0.0000000000E+00       110    3         4      5712  0.5517241000E+00  0.0000000000E+00  0.5000000000E+00  0.2547198276E+04  0.2700000000E+04  0.2500000000E+02         1
       0       1  0.0000000000E+00       111    3         5      5712  0.6896552000E+00  0.0000000000E+00  0.5000000000E+00  0.2548060345E+04  0.2700000000E+04  0.2500000000E+02         1
       0       1  0.0000000000E+00       112    3         6      5712  0.8275862000E+00  0.0000000000E+00  0.5000000000E+00  0.2548922414E+04  0.2700000000E+04  0.2500000000E+02         1
       0       1  0.0000000000E+00       113    3         7      5712  0.9655172000E+00  0.0000000000E+00  0.5000000000E+00  0.2549784482E+04  0.2700000000E+04  0.2500000000E+02         1
       0       1  0.0000000000E+00       114    3         8      6063  0.1000000000E+01  0.8965517000E+00  0.5000000000E+00  0.2550000000E+04  0.2699353448E+04  0.2500000000E+02         1
       0       1  0.0000000000E+00       115    3         9      6063  0.1000000000E+01  0.7586207000E+00  0.5000000000E+00  0.2550000000E+04  0.2698491379E+04  0.2500000000E+02         1
       0       1  0.0000000000E+00       116    3        10      6063  0.1000000000E+01  0.6206896000E+00  0.5000000000E+00  0.2550000000E+04  0.2697629310E+04  0.2500000000E+02         1
       0       1  0.0000000000E+00       117    3        11      6063  0.1000000000E+01  0.4827586000E+00  0.5000000000E+00  0.2550000000E+04  0.2696767241E+04  0.2500000000E+02         1
       0       1  0.0000000000E+00       118    3        12      6063  0.1000000000E+01  0.3448276000E+00  0.5000000000E+00  0.2550000000E+04  0.2695905172E+04  0.2500000000E+02         1
       0       1  0.0000000000E+00       119    3        13      6063  0.1000000000E+01  0.2068966000E+00  0.5000000000E+00  0.2550000000E+04  0.2695043104E+04  0.2500000000E+02         1
       0       1  0.0000000000E+00       120    3        14      6063  0.1000000000E+01  0.6896552000E-01  0.5000000000E+00  0.2550000000E+04  0.2694181034E+04  0.2500000000E+02         1
       0       1  0.0000000000E+00       121    3        15      6063  0.9310345000E+00  0.0000000000E+00  0.5000000000E+00  0.2549568966E+04  0.2693750000E+04  0.2500000000E+02         1
       0       1  0.0000000000E+00       122    3        16      6063  0.7931035000E+00  0.0000000000E+00  0.5000000000E+00  0.2548706897E+04  0.2693750000E+04  0.2500000000E+02         1
       0       1  0.0000000000E+00       123    3        17      6063  0.6551724000E+00  0.0000000000E+00  0.5000000000E+00  0.2547844828E+04  0.2693750000E+04  0.2500000000E+02         1
       0       1  0.0000000000E+00       124    3        18      6063  0.5172414000E+00  0.0000000000E+00  0.5000000000E+00  0.2546982759E+04  0.2693750000E+04  0.2500000000E+02         1
       0       1  0.0000000000E+00       125    3        19      6063  0.3793103000E+00  0.0000000000E+00  0.5000000000E+00  0.2546120689E+04  0.2693750000E+04  0.2500000000E+02         1
       0       1  0.0000000000E+00       126    3        20      6063  0.2413793000E+00  0.0000000000E+00  0.5000000000E+00  0.2545258621E+04  0.2693750000E+04  0.2500000000E+02         1
       0       1  0.0000000000E+00       127    3        21      6063  0.1034483000E+00  0.0000000000E+00  0.5000000000E+00  0.2544396552E+04  0.2693750000E+04  0.2500000000E+02         1
       0       1  0.0000000000E+00       128    3        22      6062  0.1000000000E+01  0.3448276000E-01  0.5000000000E+00  0.2543750000E+04  0.2693965517E+04  0.2500000000E+02         1
       0       1  0.0000000000E+00       129    3        23      6062  0.1000000000E+01  0.1724138000E+00  0.5000000000E+00  0.2543750000E+04  0.2694827586E+04  0.2500000000E+02         1
       0       1  0.0000000000E+00       130    3        24      6062  0.1000000000E+01  0.3103448000E+00  0.5000000000E+00  0.2543750000E+04  0.2695689655E+04  0.2500000000E+02         1
       0       1  0.0000000000E+00       131    3        25      6062  0.1000000000E+01  0.4482759000E+00  0.5000000000E+00  0.2543750000E+04  0.2696551724E+04  0.2500000000E+02         1
       0       1  0.0000000000E+00       132    3        26      6062  0.1000000000E+01  0.5862069000E+00  0.5000000000E+00  0.2543750000E+04  0.2697413793E+04  0.2500000000E+02         1
       0       1  0.0000000000E+00       133    3        27      6062  0.1000000000E+01  0.7241379000E+00  0.5000000000E+00  0.2543750000E+04  0.2698275862E+04  0.2500000000E+02         1
       0       1  0.0000000000E+00       134    3        28      6062  0.1000000000E+01  0.8620690000E+00  0.5000000000E+00  0.2543750000E+04  0.2699137931E+04  0.2500000000E+02         1
       0       1  0.0000000000E+00       135    3        29      5711  0.1000000000E+01  0.0000000000E+00  0.5000000000E+00  0.2543750000E+04  0.2700000000E+04  0.2500000000E+02         1
       0       1  0.0000000000E+00       136    3        60      5711  0.1000000000E+01  0.0000000000E+00  0.5000000000E+00  0.2543750000E+04  0.2700000000E+04  0.2500000000E+02         1
       0       1  0.0000000000E+00       137    3        61      5712  0.1666667000E+00  0.0000000000E+00  0.5000000000E+00  0.2544791667E+04  0.2700000000E+04  0.2500000000E+02         1
       0       1  0.0000000000E+00       138    3        62      5712  0.3333333000E+00  0.0000000000E+00  0.5000000000E+00  0.2545833333E+04  0.2700000000E+04  0.2500000000E+02         1
       0       1  0.0000000000E+00       139    3        63      5712  0.5000000000E+00  0.0000000000E+00  0.5000000000E+00  0.2546875000E+04  0.2700000000E+04  0.2500000000E+02         1
       0       1  0.0000000000E+00       140    3        64      5712  0.6666667000E+00  0.0000000000E+00  0.5000000000E+00  0.2547916667E+04  0.2700000000E+04  0.2500000000E+02         1
       0       1  0.0000000000E+00       141    3        65      5712  0.8333333000E+00  0.0000000000E+00  0.5000000000E+00  0.2548958333E+04  0.2700000000E+04  0.2500000000E+02         1
       0       1  0.0000000000E+00       142    3        66      5712  0.1000000000E+01  0.0000000000E+00  0.5000000000E+00  0.2550000000E+04  0.2700000000E+04  0.2500000000E+02         1
       0       1  0.0000000000E+00       143    3        67      6063  0.1000000000E+01  0.8333333000E+00  0.5000000000E+00  0.2550000000E+04  0.2698958333E+04  0.2500000000E+02         1
       0       1  0.0000000000E+00       144    3        68      6063  0.1000000000E+01  0.6666667000E+00  0.5000000000E+00  0.2550000000E+04  0.2697916667E+04  0.2500000000E+02         1
       0       1  0.0000000000E+00       145    3        69      6063  0.1000000000E+01  0.5000000000E+00  0.5000000000E+00  0.2550000000E+04  0.2696875000E+04  0.2500000000E+02         1
       0       1  0.0000000000E+00       146    3        70      6063  0.1000000000E+01  0.3333333000E+00  0.5000000000E+00  0.2550000000E+04  0.2695833333E+04  0.2500000000E+02         1
       0       1  0.0000000000E+00       147    3        71      6063  0.1000000000E+01  0.1666667000E+00  0.5000000000E+00  0.2550000000E+04  0.2694791667E+04  0.2500000000E+02         1
       0       1  0.0000000000E+00       148    3        72      6063  0.1000000000E+01  0.0000000000E+00  0.5000000000E+00  0.2550000000E+04  0.2693750000E+04  0.2500000000E+02         1
       0       1  0.0000000000E+00       149    3        73      6063  0.8333333000E+00  0.0000000000E+00  0.5000000000E+00  0.2548958333E+04  0.2693750000E+04  0.2500000000E+02         1
       0       1  0.0000000000E+00       150    3        74      6063  0.6666667000E+00  0.0000000000E+00  0.5000000000E+00  0.2547916667E+04  0.2693750000E+04  0.2500000000E+02         1
       0       1  0.0000000000E+00       151    3        75      6063  0.5000000000E+00  0.0000000000E+00  0.5000000000E+00  0.2546875000E+04  0.2693750000E+04  0.2500000000E+02         1
       0       1  0.0000000000E+00       152    3        76      6063  0.3333333000E+00  0.0000000000E+00  0.5000000000E+00  0.2545833333E+04  0.2693750000E+04  0.2500000000E+02         1
       0       1  0.0000000000E+00       153    3        77      6063  0.1666667000E+00  0.0000000000E+00  0.5000000000E+00  0.2544791667E+04  0.2693750000E+04  0.2500000000E+02         1
       0       1  0.0000000000E+00       154    3        78      6062  0.1000000000E+01  0.0000000000E+00  0.5000000000E+00  0.2543750000E+04  0.2693750000E+04  0.2500000000E+02         1
       0       1  0.0000000000E+00       155    3        79      6062  0.1000000000E+01  0.1666667000E+00  0.5000000000E+00  0.2543750000E+04  0.2694791667E+04  0.2500000000E+02         1
       0       1  0.0000000000E+00       156    3        80      6062  0.1000000000E+01  0.3333333000E+00  0.5000000000E+00  0.2543750000E+04  0.2695833333E+04  0.2500000000E+02         1
       0       1  0.0000000000E+00       157    3        81      6062  0.1000000000E+01  0.5000000000E+00  0.5000000000E+00  0.2543750000E+04  0.2696875000E+04  0.2500000000E+02         1
       0       1  0.0000000000E+00       158    3        82      6062  0.1000000000E+01  0.6666667000E+00  0.5000000000E+00  0.2543750000E+04  0.2697916667E+04  0.2500000000E+02         1