# MPSIM package for MODPATH 7 generated by Flopy 3.3.5
mp_rv.mpnam
mp_rv.mplst
2 2 2 2 0 0
mp_rv.mpend
mp_rv.mppth
0
1
0
2
1
1
3
d1
1
0.0
INTERNAL
1
2
50 1
        60      5314               1               0             0.5               0         0
        61      5312               1       0.4693878             0.5               0         0
        62      5306               1       0.9387755             0.5               0         0
        63      5011               1       0.4081633             0.5               0         0
        64      5009               1        0.877551             0.5               0         0
        65      5001               1       0.3469388             0.5               0         0
        66      4714               1       0.8163266             0.5               0         0
        67      4706               1       0.2857143             0.5               0         0
        68      4704               1        0.755102             0.5               0         0
        69      4415               1       0.2244898             0.5               0         0
        70      4409               1       0.6938776             0.5               0         0
        71      4117               1       0.1632653             0.5               0         0
        72      4115               1       0.6326531             0.5               0         0
        73      4107               1       0.1020408             0.5               0         0
        74      3817               1       0.5714286             0.5               0         0
        75      3809               1      0.04081633             0.5               0         0
        76      3807               1       0.5102041             0.5               0         0
        77      3517               1       0.9795918             0.5               0         0
        78      3509               1       0.4489796             0.5               0         0
        79      3508       0.9183673               0             0.5               0         0
        80      3513               1       0.6122449             0.5               0         0
        81      3519               1       0.1428571             0.5               0         0
        82      3811               1       0.6734694             0.5               0         0
        83      3813               1       0.2040816             0.5               0         0
        84      3821               1       0.7346939             0.5               0         0
        85      4111               1       0.2653061             0.5               0         0
        86      4119               1       0.7959183             0.5               0         0
        87      4121               1       0.3265306             0.5               0         0
        88      4413               1       0.8571429             0.5               0         0
        89      4419               1       0.3877551             0.5               0         0
        90      4708               1       0.9183673             0.5               0         0
        91      4710               1       0.4489796             0.5               0         0
        92      4718               1       0.9795918             0.5               0         0
        93      5005               1       0.5102041             0.5               0         0
        94      5007               1      0.04081633             0.5               0         0
        95      5015               1       0.5714286             0.5               0         0
        96      5308               1       0.1020408             0.5               0         0
        97      5316               1       0.6326531             0.5               0         0
        98      5318               1       0.1632653             0.5               0         0
        99      5613               1       0.6938776             0.5               0         0
       100      5619               1       0.2244898             0.5               0         0
       101      5914               1        0.755102             0.5               0         0
       102      5916               1       0.2857143             0.5               0         0
       103      5922       0.8163266               0             0.5               0         0
       104      5919       0.3469388               0             0.5               0         0
       105      5912               1        0.122449             0.5               0         0
       106      5910               1       0.5918368             0.5               0         0
       107      5615               1      0.06122449             0.5               0         0
       108      5609               1       0.5306122             0.5               0         0
       109      5314               1               0             0.5               0         0
w1
1
0.0
INTERNAL
1
2
30 1
         0     10799               1               0             0.5               0         0
         1     10800        0.137931               0             0.5               0         0
         2     10800       0.2758621               0             0.5               0         0
         3     10800       0.4137931               0             0.5               0         0
         4     10800       0.5517241               0             0.5               0         0
         5     10800       0.6896552               0             0.5               0         0
         6     10800       0.8275862               0             0.5               0         0
         7     10800       0.9655172               0             0.5               0         0
         8     11069               1       0.8965517             0.5               0         0
         9     11069               1       0.7586207             0.5               0         0
        10     11069               1       0.6206896             0.5               0         0
        11     11069               1       0.4827586             0.5               0         0
        12     11069               1       0.3448276             0.5               0         0
        13     11069               1       0.2068966             0.5               0         0
        14     11069               1      0.06896552             0.5               0         0
        15     11069       0.9310345               0             0.5               0         0
        16     11069       0.7931035               0             0.5               0         0
        17     11069       0.6551724               0             0.5               0         0
        18     11069       0.5172414               0             0.5               0         0
        19     11069       0.3793103               0             0.5               0         0
        20     11069       0.2413793               0             0.5               0         0
        21     11069       0.1034483               0             0.5               0         0
        22     11068               1      0.03448276             0.5               0         0
        23     11068               1       0.1724138             0.5               0         0
        24     11068               1       0.3103448             0.5               0         0
        25     11068               1       0.4482759             0.5               0         0
        26     11068               1       0.5862069             0.5               0         0
        27     11068               1       0.7241379             0.5               0         0
        28     11068               1        0.862069             0.5               0         0
        29     10799               1               0             0.5               0         0
w2
1
0.0
INTERNAL
1
2
30 1
        30     14961               1               0             0.5               0         0
        31     14962        0.137931               0             0.5               0         0
        32     14962       0.2758621               0             0.5               0         0
        33     14962       0.4137931               0             0.5               0         0
        34     14962       0.5517241               0             0.5               0         0
        35     14962       0.6896552               0             0.5               0         0
        36     14962       0.8275862               0             0.5               0         0
        37     14962       0.9655172               0             0.5               0         0
        38     14968               1       0.8965517             0.5               0         0
        39     14968               1       0.7586207             0.5               0         0
        40     14968               1       0.6206896             0.5               0         0
        41     14968               1       0.4827586             0.5               0         0
        42     14968               1       0.3448276             0.5               0         0
        43     14968               1       0.2068966             0.5               0         0
        44     14968               1      0.06896552             0.5               0         0
        45     14968       0.9310345               0             0.5               0         0
        46     14968       0.7931035               0             0.5               0         0
        47     14968       0.6551724               0             0.5               0         0
        48     14968       0.5172414               0             0.5               0         0
        49     14968       0.3793103               0             0.5               0         0
        50     14968       0.2413793               0             0.5               0         0
        51     14968       0.1034483               0             0.5               0         0
        52     14967               1      0.03448276             0.5               0         0
        53     14967               1       0.1724138             0.5               0         0
        54     14967               1       0.3103448             0.5               0         0
        55     14967               1       0.4482759             0.5               0         0
        56     14967               1       0.5862069             0.5               0         0
        57     14967               1       0.7241379             0.5               0         0
        58     14967               1        0.862069             0.5               0         0
        59     14961               1               0             0.5               0         0
