MODPATH_TIMESERIES_FILE         7         2
    2   0.0000000000E+00  0.0000000000E+00  0.0000000000E+00  0.0000000000E+00
END HEADER
       0       1  0.0000000000E+00         1    1         0     10799  0.1000000000E+01  0.0000000000E+00  0.5000000000E+00  0.2537500000E+04  0.2700000000E+04  0.2500000000E+02         1
       0       1  0.0000000000E+00         2    1         1     10800  0.1379310000E+00  0.0000000000E+00  0.5000000000E+00  0.2539224137E+04  0.2700000000E+04  0.2500000000E+02         1
       0       1  0.0000000000E+00         3    1         2     10800  0.2758621000E+00  0.0000000000E+00  0.5000000000E+00  0.2540948276E+04  0.2700000000E+04  0.2500000000E+02         1
       0       1  0.0000000000E+00         4    1         3     10800  0.4137931000E+00  0.0000000000E+00  0.5000000000E+00  0.2542672414E+04  0.2700000000E+04  0.2500000000E+02         1
       0       1  0.0000000000E+00         5    1         4     10800  0.5517241000E+00  0.0000000000E+00  0.5000000000E+00  0.2544396551E+04  0.2700000000E+04  0.2500000000E+02         1
       0       1  0.0000000000E+00         6    1         5     10800  0.6896552000E+00  0.0000000000E+00  0.5000000000E+00  0.2546120690E+04  0.2700000000E+04  0.2500000000E+02         1
       0       1  0.0000000000E+00         7    1         6     10800  0.8275862000E+00  0.0000000000E+00  0.5000000000E+00  0.2547844828E+04  0.2700000000E+04  0.2500000000E+02         1
       0       1  0.0000000000E+00         8    1         7     10800  0.9655172000E+00  0.0000000000E+00  0.5000000000E+00  0.2549568965E+04  0.2700000000E+04  0.2500000000E+02         1
       0       1  0.0000000000E+00         9    1         8     11069  0.1000000000E+01  0.8965517000E+00  0.5000000000E+00  0.2550000000E+04  0.2698706896E+04  0.2500000000E+02         1
       0       1  0.0000000000E+00        10    1         9     11069  0.1000000000E+01  0.7586207000E+00  0.5000000000E+00  0.2550000000E+04  0.2696982759E+04  0.2500000000E+02         1
       0       1  0.0000000000E+00        11    1        10     11069  0.1000000000E+01  0.6206896000E+00  0.5000000000E+00  0.2550000000E+04  0.2695258620E+04  0.2500000000E+02         1
       0       1  0.0000000000E+00        12    1        11     11069  0.1000000000E+01  0.4827586000E+00  0.5000000000E+00  0.2550000000E+04  0.2693534483E+04  0.2500000000E+02         1
       0       1  0.0000000000E+00        13    1        12     11069  0.1000000000E+01  0.3448276000E+00  0.5000000000E+00  0.2550000000E+04  0.2691810345E+04  0.2500000000E+02         1
       0       1  0.0000000000E+00        14    1        13     11069  0.1000000000E+01  0.2068966000E+00  0.5000000000E+00  0.2550000000E+04  0.2690086208E+04  0.2500000000E+02         1
       0       1  0.0000000000E+00        15    1        14     11069  0.1000000000E+01  0.6896552000E-01  0.5000000000E+00  0.2550000000E+04  0.2688362069E+04  0.2500000000E+02         1
       0       1  0.0000000000E+00        16    1        15     11069  0.9310345000E+00  0.0000000000E+00  0.5000000000E+00  0.2549137931E+04  0.2687500000E+04  0.2500000000E+02         1
       0       1  0.0000000000E+00        17    1        16     11069  0.7931035000E+00  0.0000000000E+00  0.5000000000E+00  0.2547413794E+04  0.2687500000E+04  0.2500000000E+02         1
       0       1  0.0000000000E+00        18    1        17     11069  0.6551724000E+00  0.0000000000E+00  0.5000000000E+00  0.2545689655E+04  0.2687500000E+04  0.2500000000E+02         1
       0       1  0.0000000000E+00        19    1        18     11069  0.5172414000E+00  0.0000000000E+00  0.5000000000E+00  0.2543965517E+04  0.2687500000E+04  0.2500000000E+02         1
       0       1  0.0000000000E+00        20    1        19     11069  0.3793103000E+00  0.0000000000E+00  0.5000000000E+00  0.2542241379E+04  0.2687500000E+04  0.2500000000E+02         1
       0       1  0.0000000000E+00        21    1        20     11069  0.2413793000E+00  0.0000000000E+00  0.5000000000E+00  0.2540517241E+04  0.2687500000E+04  0.2500000000E+02         1
       0       1  0.0000000000E+00        22    1        21     11069  0.1034483000E+00  0.0000000000E+00  0.5000000000E+00  0.2538793104E+04  0.2687500000E+04  0.2500000000E+02         1
       0       1  0.0000000000E+00        23    1        22     11068  0.1000000000E+01  0.3448276000E-01  0.5000000000E+00  0.2537500000E+04  0.2687931034E+04  0.2500000000E+02         1
       0       1  0.0000000000E+00        24    1        23     11068  0.1000000000E+01  0.1724138000E+00  0.5000000000E+00  0.2537500000E+04  0.2689655173E+04  0.2500000000E+02         1
       0       1  0.0000000000E+00        25    1        24     11068  0.1000000000E+01  0.3103448000E+00  0.5000000000E+00  0.2537500000E+04  0.2691379310E+04  0.2500000000E+02         1
       0       1  0.0000000000E+00        26    1        25     11068  0.1000000000E+01  0.4482759000E+00  0.5000000000E+00  0.2537500000E+04  0.2693103449E+04  0.2500000000E+02         1
       0       1  0.0000000000E+00        27    1        26     11068  0.1000000000E+01  0.5862069000E+00  0.5000000000E+00  0.2537500000E+04  0.2694827586E+04  0.2500000000E+02         1
       0       1  0.0000000000E+00        28    1        27     11068  0.1000000000E+01  0.7241379000E+00  0.5000000000E+00  0.2537500000E+04  0.2696551724E+04  0.2500000000E+02         1
       0       1  0.0000000000E+00        29    1        28     11068  0.1000000000E+01  0.8620690000E+00  0.5000000000E+00  0.2537500000E+04  0.2698275863E+04  0.2500000000E+02         1
       0       1  0.0000000000E+00        30    1        29     10799  0.1000000000E+01  0.0000000000E+00  0.5000000000E+00  0.2537500000E+04  0.2700000000E+04  0.2500000000E+02         1
       0       1  0.0000000000E+00        31    2        30     14961  0.1000000000E+01  0.0000000000E+00  0.5000000000E+00  0.1212500000E+04  0.1375000000E+04  0.2500000000E+02         1
       0       1  0.0000000000E+00        32    2        31     14962  0.1379310000E+00  0.0000000000E+00  0.5000000000E+00  0.1214224137E+04  0.1375000000E+04  0.2500000000E+02         1
       0       1  0.0000000000E+00        33    2        32     14962  0.2758621000E+00  0.0000000000E+00  0.5000000000E+00  0.1215948276E+04  0.1375000000E+04  0.2500000000E+02         1
       0       1  0.0000000000E+00        34    2        33     14962  0.4137931000E+00  0.0000000000E+00  0.5000000000E+00  0.1217672414E+04  0.1375000000E+04  0.2500000000E+02         1
       0       1  0.0000000000E+00        35    2        34     14962  0.5517241000E+00  0.0000000000E+00  0.5000000000E+00  0.1219396551E+04  0.1375000000E+04  0.2500000000E+02         1
       0       1  0.0000000000E+00        36    2        35     14962  0.6896552000E+00  0.0000000000E+00  0.5000000000E+00  0.1221120690E+04  0.1375000000E+04  0.2500000000E+02         1
       0       1  0.0000000000E+00        37    2        36     14962  0.8275862000E+00  0.0000000000E+00  0.5000000000E+00  0.1222844828E+04  0.1375000000E+04  0.2500000000E+02         1
       0       1  0.0000000000E+00        38    2        37     14962  0.9655172000E+00  0.0000000000E+00  0.5000000000E+00  0.1224568965E+04  0.1375000000E+04  0.2500000000E+02         1
       0       1  0.0000000000E+00        39    2        38     14968  0.1000000000E+01  0.8965517000E+00  0.5000000000E+00  0.1225000000E+04  0.1373706896E+04  0.2500000000E+02         1
       0       1  0.0000000000E+00        40    2        39     14968  0.1000000000E+01  0.7586207000E+00  0.5000000000E+00  0.1225000000E+04  0.1371982759E+04  0.2500000000E+02         1
       0       1  0.0000000000E+00        41    2        40     14968  0.1000000000E+01  0.6206896000E+00  0.5000000000E+00  0.1225000000E+04  0.1370258620E+04  0.2500000000E+02         1
       0       1  0.0000000000E+00        42    2        41     14968  0.1000000000E+01  0.4827586000E+00  0.5000000000E+00  0.1225000000E+04  0.1368534483E+04  0.2500000000E+02         1
       0       1  0.0000000000E+00        43    2        42     14968  0.1000000000E+01  0.3448276000E+00  0.5000000000E+00  0.1225000000E+04  0.1366810345E+04  0.2500000000E+02         1
       0       1  0.0000000000E+00        44    2        43     14968  0.1000000000E+01  0.2068966000E+00  0.5000000000E+00  0.1225000000E+04  0.1365086208E+04  0.2500000000E+02         1
       0       1  0.0000000000E+00        45    2        44     14968  0.1000000000E+01  0.6896552000E-01  0.5000000000E+00  0.1225000000E+04  0.1363362069E+04  0.2500000000E+02         1
       0       1  0.0000000000E+00        46    2        45     14968  0.9310345000E+00  0.0000000000E+00  0.5000000000E+00  0.1224137931E+04  0.1362500000E+04  0.2500000000E+02         1
       0       1  0.0000000000E+00        47    2        46     14968  0.7931035000E+00  0.0000000000E+00  0.5000000000E+00  0.1222413794E+04  0.1362500000E+04  0.2500000000E+02         1
       0       1  0.0000000000E+00        48    2        47     14968  0.6551724000E+00  0.0000000000E+00  0.5000000000E+00  0.1220689655E+04  0.1362500000E+04  0.2500000000E+02         1
       0       1  0.0000000000E+00        49    2        48     14968  0.5172414000E+00  0.0000000000E+00  0.5000000000E+00  0.1218965517E+04  0.1362500000E+04  0.2500000000E+02         1
       0       1  0.0000000000E+00        50    2        49     14968  0.3793103000E+00  0.0000000000E+00  0.5000000000E+00  0.1217241379E+04  0.1362500000E+04  0.2500000000E+02         1
       0       1  0.0000000000E+00        51    2        50     14968  0.2413793000E+00  0.0000000000E+00  0.5000000000E+00  0.1215517241E+04  0.1362500000E+04  0.2500000000E+02         1
       0       1  0.0000000000E+00        52    2        51     14968  0.1034483000E+00  0.0000000000E+00  0.5000000000E+00  0.1213793104E+04  0.1362500000E+04  0.2500000000E+02         1
       0       1  0.0000000000E+00        53    2        52     14967  0.1000000000E+01  0.3448276000E-01  0.5000000000E+00  0.1212500000E+04  0.1362931035E+04  0.2500000000E+02         1
       0       1  0.0000000000E+00        54    2        53     14967  0.1000000000E+01  0.1724138000E+00  0.5000000000E+00  0.1212500000E+04  0.1364655172E+04  0.2500000000E+02         1
       0       1  0.0000000000E+00        55    2        54     14967  0.1000000000E+01  0.3103448000E+00  0.5000000000E+00  0.1212500000E+04  0.1366379310E+04  0.2500000000E+02         1
       0       1  0.0000000000E+00        56    2        55     14967  0.1000000000E+01  0.4482759000E+00  0.5000000000E+00  0.1212500000E+04  0.1368103449E+04  0.2500000000E+02         1
       0       1  0.0000000000E+00        57    2        56     14967  0.1000000000E+01  0.5862069000E+00  0.5000000000E+00  0.1212500000E+04  0.1369827586E+04  0.2500000000E+02         1
       0       1  0.0000000000E+00        58    2        57     14967  0.1000000000E+01  0.7241379000E+00  0.5000000000E+00  0.1212500000E+04  0.1371551724E+04  0.2500000000E+02         1
       0       1  0.0000000000E+00        59    2        58     14967  0.1000000000E+01  0.8620690000E+00  0.5000000000E+00  0.1212500000E+04  0.1373275863E+04  0.2500000000E+02         1
       0       1  0.0000000000E+00        60    2        59     14961  0.1000000000E+01  0.0000000000E+00  0.5000000000E+00  0.1212500000E+04  0.1375000000E+04  0.2500000000E+02         1
       0       1  0.0000000000E+00        61    3        60      5916  0.1000000000E+01  0.0000000000E+00  0.5000000000E+00  0.2087500000E+04  0.3675000000E+04  0.2500000000E+02         1
       0       1  0.0000000000E+00        62    3        61      5922  0.5306122000E+00  0.0000000000E+00  0.5000000000E+00  0.2081632652E+04  0.3662500000E+04  0.2500000000E+02         1
       0       1  0.0000000000E+00        63    3        62      5919  0.6122449000E-01  0.0000000000E+00  0.5000000000E+00  0.2063265306E+04  0.3662500000E+04  0.2500000000E+02         1
       0       1  0.0000000000E+00        64    3        63      5912  0.1000000000E+01  0.4081633000E+00  0.5000000000E+00  0.2062500000E+04  0.3680102041E+04  0.2500000000E+02         1
       0       1  0.0000000000E+00        65    3        64      5910  0.1000000000E+01  0.8775510000E+00  0.5000000000E+00  0.2062500000E+04  0.3698469387E+04  0.2500000000E+02         1
       0       1  0.0000000000E+00        66    3        65      5615  0.1000000000E+01  0.3469388000E+00  0.5000000000E+00  0.2062500000E+04  0.3716836735E+04  0.2500000000E+02         1
       0       1  0.0000000000E+00        67    3        66      5609  0.1000000000E+01  0.8163266000E+00  0.5000000000E+00  0.2062500000E+04  0.3735204082E+04  0.2500000000E+02         1
       0       1  0.0000000000E+00        68    3        67      5314  0.1000000000E+01  0.2857143000E+00  0.5000000000E+00  0.2062500000E+04  0.3753571429E+04  0.2500000000E+02         1
       0       1  0.0000000000E+00        69    3        68      5312  0.1000000000E+01  0.7551020000E+00  0.5000000000E+00  0.2062500000E+04  0.3771938775E+04  0.2500000000E+02         1
       0       1  0.0000000000E+00        70    3        69      5304  0.1000000000E+01  0.2244898000E+00  0.5000000000E+00  0.2062500000E+04  0.3790306123E+04  0.2500000000E+02         1
       0       1  0.0000000000E+00        71    3        70      5011  0.1000000000E+01  0.6938776000E+00  0.5000000000E+00  0.2062500000E+04  0.3808673470E+04  0.2500000000E+02         1
       0       1  0.0000000000E+00        72    3        71      5003  0.1000000000E+01  0.1632653000E+00  0.5000000000E+00  0.2062500000E+04  0.3827040816E+04  0.2500000000E+02         1
       0       1  0.0000000000E+00        73    3        72      5001  0.1000000000E+01  0.6326531000E+00  0.5000000000E+00  0.2062500000E+04  0.3845408164E+04  0.2500000000E+02         1
       0       1  0.0000000000E+00        74    3        73      4712  0.1000000000E+01  0.1020408000E+00  0.5000000000E+00  0.2062500000E+04  0.3863775510E+04  0.2500000000E+02         1
       0       1  0.0000000000E+00        75    3        74      4706  0.1000000000E+01  0.5714286000E+00  0.5000000000E+00  0.2062500000E+04  0.3882142857E+04  0.2500000000E+02         1
       0       1  0.0000000000E+00        76    3        75      4417  0.1000000000E+01  0.4081633000E-01  0.5000000000E+00  0.2062500000E+04  0.3900510204E+04  0.2500000000E+02         1
       0       1  0.0000000000E+00        77    3        76      4415  0.1000000000E+01  0.5102041000E+00  0.5000000000E+00  0.2062500000E+04  0.3918877551E+04  0.2500000000E+02         1
       0       1  0.0000000000E+00        78    3        77      4409  0.1000000000E+01  0.9795918000E+00  0.5000000000E+00  0.2062500000E+04  0.3937244897E+04  0.2500000000E+02         1
       0       1  0.0000000000E+00        79    3        78      4117  0.1000000000E+01  0.4489796000E+00  0.5000000000E+00  0.2062500000E+04  0.3955612245E+04  0.2500000000E+02         1
       0       1  0.0000000000E+00        80    3        79      4115  0.1000000000E+01  0.9183673000E+00  0.5000000000E+00  0.2062500000E+04  0.3973979591E+04  0.2500000000E+02         1
       0       1  0.0000000000E+00        81    3        80      4107  0.1000000000E+01  0.3877551000E+00  0.5000000000E+00  0.2062500000E+04  0.3992346939E+04  0.2500000000E+02         1
       0       1  0.0000000000E+00        82    3        81      3817  0.1000000000E+01  0.8571429000E+00  0.5000000000E+00  0.2062500000E+04  0.4010714286E+04  0.2500000000E+02         1
       0       1  0.0000000000E+00        83    3        82      3809  0.1000000000E+01  0.3265306000E+00  0.5000000000E+00  0.2062500000E+04  0.4029081633E+04  0.2500000000E+02         1
       0       1  0.0000000000E+00        84    3        83      3807  0.1000000000E+01  0.7959183000E+00  0.5000000000E+00  0.2062500000E+04  0.4047448979E+04  0.2500000000E+02         1
       0       1  0.0000000000E+00        85    3        84      3515  0.1000000000E+01  0.2653061000E+00  0.5000000000E+00  0.2062500000E+04  0.4065816326E+04  0.2500000000E+02         1
       0       1  0.0000000000E+00        86    3        85      3509  0.1000000000E+01  0.7346939000E+00  0.5000000000E+00  0.2062500000E+04  0.4084183674E+04  0.2500000000E+02         1
       0       1  0.0000000000E+00        87    3        86      3511  0.2040816000E+00  0.0000000000E+00  0.5000000000E+00  0.2077551020E+04  0.4087500000E+04  0.2500000000E+02         1
       0       1  0.0000000000E+00        88    3        87      3513  0.1000000000E+01  0.3265306000E+00  0.5000000000E+00  0.2087500000E+04  0.4079081632E+04  0.2500000000E+02         1
       0       1  0.0000000000E+00        89    3        88      3521  0.1000000000E+01  0.8571429000E+00  0.5000000000E+00  0.2087500000E+04  0.4060714286E+04  0.2500000000E+02         1
       0       1  0.0000000000E+00        90    3        89      3811  0.1000000000E+01  0.3877551000E+00  0.5000000000E+00  0.2087500000E+04  0.4042346939E+04  0.2500000000E+02         1
       0       1  0.0000000000E+00        91    3        90      3819  0.1000000000E+01  0.9183673000E+00  0.5000000000E+00  0.2087500000E+04  0.4023979591E+04  0.2500000000E+02         1
       0       1  0.0000000000E+00        92    3        91      3821  0.1000000000E+01  0.4489796000E+00  0.5000000000E+00  0.2087500000E+04  0.4005612245E+04  0.2500000000E+02         1
       0       1  0.0000000000E+00        93    3        92      4113  0.1000000000E+01  0.9795918000E+00  0.5000000000E+00  0.2087500000E+04  0.3987244897E+04  0.2500000000E+02         1
       0       1  0.0000000000E+00        94    3        93      4119  0.1000000000E+01  0.5102041000E+00  0.5000000000E+00  0.2087500000E+04  0.3968877551E+04  0.2500000000E+02         1
       0       1  0.0000000000E+00        95    3        94      4121  0.1000000000E+01  0.4081633000E-01  0.5000000000E+00  0.2087500000E+04  0.3950510204E+04  0.2500000000E+02         1
       0       1  0.0000000000E+00        96    3        95      4413  0.1000000000E+01  0.5714286000E+00  0.5000000000E+00  0.2087500000E+04  0.3932142857E+04  0.2500000000E+02         1
       0       1  0.0000000000E+00        97    3        96      4419  0.1000000000E+01  0.1020408000E+00  0.5000000000E+00  0.2087500000E+04  0.3913775510E+04  0.2500000000E+02         1
       0       1  0.0000000000E+00        98    3        97      4708  0.1000000000E+01  0.6326531000E+00  0.5000000000E+00  0.2087500000E+04  0.3895408164E+04  0.2500000000E+02         1
       0       1  0.0000000000E+00        99    3        98      4710  0.1000000000E+01  0.1632653000E+00  0.5000000000E+00  0.2087500000E+04  0.3877040816E+04  0.2500000000E+02         1
       0       1  0.0000000000E+00       100    3        99      4718  0.1000000000E+01  0.6938776000E+00  0.5000000000E+00  0.2087500000E+04  0.3858673470E+04  0.2500000000E+02         1
       0       1  0.0000000000E+00       101    3       100      5005  0.1000000000E+01  0.2244898000E+00  0.5000000000E+00  0.2087500000E+04  0.3840306123E+04  0.2500000000E+02         1
       0       1  0.0000000000E+00       102    3       101      5013  0.1000000000E+01  0.7551020000E+00  0.5000000000E+00  0.2087500000E+04  0.3821938775E+04  0.2500000000E+02         1
       0       1  0.0000000000E+00       103    3       102      5015  0.1000000000E+01  0.2857143000E+00  0.5000000000E+00  0.2087500000E+04  0.3803571429E+04  0.2500000000E+02         1
       0       1  0.0000000000E+00       104    3       103      5310  0.1000000000E+01  0.8163266000E+00  0.5000000000E+00  0.2087500000E+04  0.3785204082E+04  0.2500000000E+02         1
       0       1  0.0000000000E+00       105    3       104      5316  0.1000000000E+01  0.3469388000E+00  0.5000000000E+00  0.2087500000E+04  0.3766836735E+04  0.2500000000E+02         1
       0       1  0.0000000000E+00       106    3       105      5611  0.1000000000E+01  0.8775510000E+00  0.5000000000E+00  0.2087500000E+04  0.3748469387E+04  0.2500000000E+02         1
       0       1  0.0000000000E+00       107    3       106      5613  0.1000000000E+01  0.4081633000E+00  0.5000000000E+00  0.2087500000E+04  0.3730102041E+04  0.2500000000E+02         1
       0       1  0.0000000000E+00       108    3       107      5621  0.1000000000E+01  0.9387755000E+00  0.5000000000E+00  0.2087500000E+04  0.3711734694E+04  0.2500000000E+02         1
       0       1  0.0000000000E+00       109    3       108      5914  0.1000000000E+01  0.4693878000E+00  0.5000000000E+00  0.2087500000E+04  0.3693367348E+04  0.2500000000E+02         1
       0       1  0.0000000000E+00       110    3       109      5916  0.1000000000E+01  0.0000000000E+00  0.5000000000E+00  0.2087500000E+04  0.3675000000E+04  0.2500000000E+02         1
       1       1  0.1000000000E-01         1    1         0     10799  0.9999999544E+00  0.4711429590E-07  0.5000000000E+00  0.2537499999E+04  0.2700000001E+04  0.2500000000E+02         1
       1       1  0.1000000000E-01         2    1         1     10800  0.1379309667E+00  0.1655215393E-06  0.5000000000E+00  0.2539224137E+04  0.2700000002E+04  0.2500000000E+02         1
       1       1  0.1000000000E-01         3    1         2     10800  0.2758620790E+00  0.1655215393E-06  0.5000000000E+00  0.2540948276E+04  0.2700000002E+04  0.2500000000E+02         1
       1       1  0.1000000000E-01         4    1         3     10800  0.4137930913E+00  0.1655215393E-06  0.5000000000E+00  0.2542672414E+04  0.2700000002E+04  0.2500000000E+02         1
       1       1  0.1000000000E-01         5    1         4     10800  0.5517241035E+00  0.1655215393E-06  0.5000000000E+00  0.2544396551E+04  0.2700000002E+04  0.2500000000E+02         1
       1       1  0.1000000000E-01         6    1         5     10800  0.6896552158E+00  0.1655215393E-06  0.5000000000E+00  0.2546120690E+04  0.2700000002E+04  0.2500000000E+02         1
       1       1  0.1000000000E-01         7    1         6     10800  0.8275862281E+00  0.1655215393E-06  0.5000000000E+00  0.2547844828E+04  0.2700000002E+04  0.2500000000E+02         1
       1       1  0.1000000000E-01         8    1         7     10800  0.9655172404E+00  0.1655215393E-06  0.5000000000E+00  0.2549568966E+04  0.2700000002E+04  0.2500000000E+02         1
       1       1  0.1000000000E-01         9    1         8     11080  0.1619326194E-06  0.8965517378E+00  0.5000000000E+00  0.2550000002E+04  0.2698706897E+04  0.2500000000E+02         1
       1       1  0.1000000000E-01        10    1         9     11080  0.1619326194E-06  0.7586207256E+00  0.5000000000E+00  0.2550000002E+04  0.2696982759E+04  0.2500000000E+02         1
       1       1  0.1000000000E-01        11    1        10     11080  0.1619326194E-06  0.6206896133E+00  0.5000000000E+00  0.2550000002E+04  0.2695258620E+04  0.2500000000E+02         1
       1       1  0.1000000000E-01        12    1        11     11080  0.1619326194E-06  0.4827586010E+00  0.5000000000E+00  0.2550000002E+04  0.2693534483E+04  0.2500000000E+02         1
       1       1  0.1000000000E-01        13    1        12     11080  0.1619326194E-06  0.3448275887E+00  0.5000000000E+00  0.2550000002E+04  0.2691810345E+04  0.2500000000E+02         1
       1       1  0.1000000000E-01        14    1        13     11080  0.1619326194E-06  0.2068965764E+00  0.5000000000E+00  0.2550000002E+04  0.2690086207E+04  0.2500000000E+02         1
       1       1  0.1000000000E-01        15    1        14     11080  0.1619326194E-06  0.6896548414E-01  0.5000000000E+00  0.2550000002E+04  0.2688362069E+04  0.2500000000E+02         1
       1       1  0.1000000000E-01        16    1        15     11071  0.9310345374E+00  0.9999998396E+00  0.5000000000E+00  0.2549137932E+04  0.2687499998E+04  0.2500000000E+02         1
       1       1  0.1000000000E-01        17    1        16     11071  0.7931035251E+00  0.9999998396E+00  0.5000000000E+00  0.2547413794E+04  0.2687499998E+04  0.2500000000E+02         1
       1       1  0.1000000000E-01        18    1        17     11071  0.6551724128E+00  0.9999998396E+00  0.5000000000E+00  0.2545689655E+04  0.2687499998E+04  0.2500000000E+02         1
       1       1  0.1000000000E-01        19    1        18     11071  0.5172414005E+00  0.9999998396E+00  0.5000000000E+00  0.2543965518E+04  0.2687499998E+04  0.2500000000E+02         1
       1       1  0.1000000000E-01        20    1        19     11071  0.3793102883E+00  0.9999998396E+00  0.5000000000E+00  0.2542241379E+04  0.2687499998E+04  0.2500000000E+02         1
       1       1  0.1000000000E-01        21    1        20     11071  0.2413792760E+00  0.9999998396E+00  0.5000000000E+00  0.2540517241E+04  0.2687499998E+04  0.2500000000E+02         1
       1       1  0.1000000000E-01        22    1        21     11071  0.1034482637E+00  0.9999998396E+00  0.5000000000E+00  0.2538793103E+04  0.2687499998E+04  0.2500000000E+02         1
       1       1  0.1000000000E-01        23    1        22     11068  0.9999998360E+00  0.3448272112E-01  0.5000000000E+00  0.2537499998E+04  0.2687931034E+04  0.2500000000E+02         1
       1       1  0.1000000000E-01        24    1        23     11068  0.9999998360E+00  0.1724137734E+00  0.5000000000E+00  0.2537499998E+04  0.2689655172E+04  0.2500000000E+02         1
       1       1  0.1000000000E-01        25    1        24     11068  0.9999998360E+00  0.3103447857E+00  0.5000000000E+00  0.2537499998E+04  0.2691379310E+04  0.2500000000E+02         1
       1       1  0.1000000000E-01        26    1        25     11068  0.9999998360E+00  0.4482758980E+00  0.5000000000E+00  0.2537499998E+04  0.2693103449E+04  0.2500000000E+02         1
       1       1  0.1000000000E-01        27    1        26     11068  0.9999998360E+00  0.5862069103E+00  0.5000000000E+00  0.2537499998E+04  0.2694827586E+04  0.2500000000E+02         1
       1       1  0.1000000000E-01        28    1        27     11068  0.9999998360E+00  0.7241379225E+00  0.5000000000E+00  0.2537499998E+04  0.2696551724E+04  0.2500000000E+02         1
       1       1  0.1000000000E-01        29    1        28     11068  0.9999998360E+00  0.8620690348E+00  0.5000000000E+00  0.2537499998E+04  0.2698275863E+04  0.2500000000E+02         1
       1       1  0.1000000000E-01        30    1        29     10799  0.9999999544E+00  0.4711429590E-07  0.5000000000E+00  0.2537499999E+04  0.2700000001E+04  0.2500000000E+02         1
       1       1  0.1000000000E-01        31    2        30     14961  0.9999999683E+00  0.3325539465E-07  0.5000000000E+00  0.1212500000E+04  0.1375000000E+04  0.2500000000E+02         1
       1       1  0.1000000000E-01        32    2        31     14962  0.1379309772E+00  0.1193913337E-06  0.5000000000E+00  0.1214224137E+04  0.1375000001E+04  0.2500000000E+02         1
       1       1  0.1000000000E-01        33    2        32     14962  0.2758620862E+00  0.1193913337E-06  0.5000000000E+00  0.1215948276E+04  0.1375000001E+04  0.2500000000E+02         1
       1       1  0.1000000000E-01        34    2        33     14962  0.4137930951E+00  0.1193913337E-06  0.5000000000E+00  0.1217672414E+04  0.1375000001E+04  0.2500000000E+02         1
       1       1  0.1000000000E-01        35    2        34     14962  0.5517241040E+00  0.1193913337E-06  0.5000000000E+00  0.1219396551E+04  0.1375000001E+04  0.2500000000E+02         1
       1       1  0.1000000000E-01        36    2        35     14962  0.6896552130E+00  0.1193913337E-06  0.5000000000E+00  0.1221120690E+04  0.1375000001E+04  0.2500000000E+02         1
       1       1  0.1000000000E-01        37    2        36     14962  0.8275862219E+00  0.1193913337E-06  0.5000000000E+00  0.1222844828E+04  0.1375000001E+04  0.2500000000E+02         1
       1       1  0.1000000000E-01        38    2        37     14962  0.9655172309E+00  0.1193913337E-06  0.5000000000E+00  0.1224568965E+04  0.1375000001E+04  0.2500000000E+02         1
       1       1  0.1000000000E-01        39    2        38     14971  0.1192201452E-06  0.8965517266E+00  0.5000000000E+00  0.1225000001E+04  0.1373706897E+04  0.2500000000E+02         1
       1       1  0.1000000000E-01        40    2        39     14971  0.1192201452E-06  0.7586207176E+00  0.5000000000E+00  0.1225000001E+04  0.1371982759E+04  0.2500000000E+02         1
       1       1  0.1000000000E-01        41    2        40     14971  0.1192201452E-06  0.6206896087E+00  0.5000000000E+00  0.1225000001E+04  0.1370258620E+04  0.2500000000E+02         1
       1       1  0.1000000000E-01        42    2        41     14971  0.1192201452E-06  0.4827585998E+00  0.5000000000E+00  0.1225000001E+04  0.1368534482E+04  0.2500000000E+02         1
       1       1  0.1000000000E-01        43    2        42     14971  0.1192201452E-06  0.3448275908E+00  0.5000000000E+00  0.1225000001E+04  0.1366810345E+04  0.2500000000E+02         1
       1       1  0.1000000000E-01        44    2        43     14971  0.1192201452E-06  0.2068965819E+00  0.5000000000E+00  0.1225000001E+04  0.1365086207E+04  0.2500000000E+02         1
       1       1  0.1000000000E-01        45    2        44     14971  0.1192201452E-06  0.6896549296E-01  0.5000000000E+00  0.1225000001E+04  0.1363362069E+04  0.2500000000E+02         1
       1       1  0.1000000000E-01        46    2        45     14970  0.9310345286E+00  0.9999998824E+00  0.5000000000E+00  0.1224137932E+04  0.1362499999E+04  0.2500000000E+02         1
       1       1  0.1000000000E-01        47    2        46     14970  0.7931035197E+00  0.9999998824E+00  0.5000000000E+00  0.1222413794E+04  0.1362499999E+04  0.2500000000E+02         1
       1       1  0.1000000000E-01        48    2        47     14970  0.6551724107E+00  0.9999998824E+00  0.5000000000E+00  0.1220689655E+04  0.1362499999E+04  0.2500000000E+02         1