# File generated by Flopy version 3.3.5 on 01/26/2022 at 15:58:03.
BEGIN options
  BOUNDNAMES
  SAVE_FLOWS
END options

BEGIN dimensions
  MAXBOUND  2
END dimensions

BEGIN period  1
  1 5630      -0.03055556  w1
  1 8377      -0.02222222  w2
END period  1

