<<<<<<< HEAD
# File generated by Flopy version 3.3.4 on 01/28/2022 at 18:16:17.
||||||| 1a00768
# File generated by Flopy version 3.3.5 on 01/28/2022 at 12:41:43.
=======
# File generated by Flopy version 3.3.5 on 01/28/2022 at 16:19:02.
>>>>>>> ff83e7fc377772244b48b63e26fb4aea0344e57c
BEGIN options
  BOUNDNAMES
  SAVE_FLOWS
END options

BEGIN dimensions
  MAXBOUND  2
END dimensions

BEGIN period  1
  1 11069      -0.03055556  w1
  1 14968      -0.02222222  w2
END period  1

