# File generated by Flopy version 3.3.5 on 01/27/2022 at 22:13:41.
BEGIN options
  BOUNDNAMES
  SAVE_FLOWS
END options

BEGIN dimensions
  MAXBOUND  80
END dimensions

BEGIN period  1
  1 12622      20.00000000  chd
  1 12717      20.00000000  chd
  1 12623      20.00000000  chd
  1 12716      20.00000000  chd
  1 12624      20.00000000  chd
  1 12715      20.00000000  chd
  1 12625      20.00000000  chd
  1 12714      20.00000000  chd
  1 12626      20.00000000  chd
  1 12713      20.00000000  chd
  1 12627      20.00000000  chd
  1 12712      20.00000000  chd
  1 12628      20.00000000  chd
  1 12711      20.00000000  chd
  1 12629      20.00000000  chd
  1 12710      20.00000000  chd
  1 12630      20.00000000  chd
  1 12709      20.00000000  chd
  1 12631      20.00000000  chd
  1 12708      20.00000000  chd
  1 12632      20.00000000  chd
  1 12707      20.00000000  chd
  1 12633      20.00000000  chd
  1 12706      20.00000000  chd
  1 12634      20.00000000  chd
  1 12705      20.00000000  chd
  1 12635      20.00000000  chd
  1 12704      20.00000000  chd
  1 12636      20.00000000  chd
  1 12703      20.00000000  chd
  1 12637      20.00000000  chd
  1 12702      20.00000000  chd
  1 12638      20.00000000  chd
  1 12701      20.00000000  chd
  1 12639      20.00000000  chd
  1 12700      20.00000000  chd
  1 12640      20.00000000  chd
  1 12699      20.00000000  chd
  1 12641      20.00000000  chd
  1 12698      20.00000000  chd
  1 12642      20.00000000  chd
  1 12697      20.00000000  chd
  1 12643      20.00000000  chd
  1 12696      20.00000000  chd
  1 12644      20.00000000  chd
  1 12695      20.00000000  chd
  1 12645      20.00000000  chd
  1 12694      20.00000000  chd
  1 12646      20.00000000  chd
  1 12693      20.00000000  chd
  1 12647      20.00000000  chd
  1 12692      20.00000000  chd
  1 12648      20.00000000  chd
  1 12691      20.00000000  chd
  1 12649      20.00000000  chd
  1 12690      20.00000000  chd
  1 12650      20.00000000  chd
  1 12689      20.00000000  chd
  1 12651      20.00000000  chd
  1 12688      20.00000000  chd
  1 12652      20.00000000  chd
  1 12687      20.00000000  chd
  1 12653      20.00000000  chd
  1 12686      20.00000000  chd
  1 12654      20.00000000  chd
  1 12685      20.00000000  chd
  1 12655      20.00000000  chd
  1 12684      20.00000000  chd
  1 12656      20.00000000  chd
  1 12683      20.00000000  chd
  1 12657      20.00000000  chd
  1 12682      20.00000000  chd
  1 12660      20.00000000  chd
  1 12681      20.00000000  chd
  1 12661      20.00000000  chd
  1 12680      20.00000000  chd
  1 12672      20.00000000  chd
  1 12677      20.00000000  chd
  1 12673      20.00000000  chd
  1 12676      20.00000000  chd
END period  1

