# File generated by Flopy version 3.3.4 on 01/28/2022 at 18:16:17.
BEGIN griddata
  strt
    CONSTANT      30.00000000
END griddata

