# File generated by Flopy version 3.3.5 on 01/27/2022 at 22:13:41.
BEGIN options
  SAVE_FLOWS
  SAVE_SPECIFIC_DISCHARGE
END options

BEGIN griddata
  icelltype
    CONSTANT  0
  k
    CONSTANT  6.30957344E-05
END griddata

