# File generated by Flopy version 3.3.5 on 01/26/2022 at 15:58:03.
BEGIN options
  BOUNDNAMES
  SAVE_FLOWS
END options

BEGIN dimensions
  MAXBOUND  80
END dimensions

BEGIN period  1
  1 11101      20.00000000  chd
  1 11196      20.00000000  chd
  1 11102      20.00000000  chd
  1 11195      20.00000000  chd
  1 11103      20.00000000  chd
  1 11194      20.00000000  chd
  1 11104      20.00000000  chd
  1 11193      20.00000000  chd
  1 11105      20.00000000  chd
  1 11192      20.00000000  chd
  1 11106      20.00000000  chd
  1 11191      20.00000000  chd
  1 11107      20.00000000  chd
  1 11190      20.00000000  chd
  1 11108      20.00000000  chd
  1 11189      20.00000000  chd
  1 11109      20.00000000  chd
  1 11188      20.00000000  chd
  1 11110      20.00000000  chd
  1 11187      20.00000000  chd
  1 11111      20.00000000  chd
  1 11186      20.00000000  chd
  1 11112      20.00000000  chd
  1 11185      20.00000000  chd
  1 11113      20.00000000  chd
  1 11184      20.00000000  chd
  1 11114      20.00000000  chd
  1 11183      20.00000000  chd
  1 11115      20.00000000  chd
  1 11182      20.00000000  chd
  1 11116      20.00000000  chd
  1 11181      20.00000000  chd
  1 11117      20.00000000  chd
  1 11180      20.00000000  chd
  1 11118      20.00000000  chd
  1 11179      20.00000000  chd
  1 11119      20.00000000  chd
  1 11178      20.00000000  chd
  1 11120      20.00000000  chd
  1 11177      20.00000000  chd
  1 11121      20.00000000  chd
  1 11176      20.00000000  chd
  1 11122      20.00000000  chd
  1 11175      20.00000000  chd
  1 11123      20.00000000  chd
  1 11174      20.00000000  chd
  1 11124      20.00000000  chd
  1 11173      20.00000000  chd
  1 11125      20.00000000  chd
  1 11172      20.00000000  chd
  1 11126      20.00000000  chd
  1 11171      20.00000000  chd
  1 11127      20.00000000  chd
  1 11170      20.00000000  chd
  1 11128      20.00000000  chd
  1 11169      20.00000000  chd
  1 11129      20.00000000  chd
  1 11168      20.00000000  chd
  1 11130      20.00000000  chd
  1 11167      20.00000000  chd
  1 11131      20.00000000  chd
  1 11166      20.00000000  chd
  1 11132      20.00000000  chd
  1 11165      20.00000000  chd
  1 11133      20.00000000  chd
  1 11164      20.00000000  chd
  1 11134      20.00000000  chd
  1 11163      20.00000000  chd
  1 11135      20.00000000  chd
  1 11162      20.00000000  chd
  1 11136      20.00000000  chd
  1 11161      20.00000000  chd
  1 11139      20.00000000  chd
  1 11160      20.00000000  chd
  1 11140      20.00000000  chd
  1 11159      20.00000000  chd
  1 11151      20.00000000  chd
  1 11156      20.00000000  chd
  1 11152      20.00000000  chd
  1 11155      20.00000000  chd
END period  1

