# File generated by Flopy version 3.3.5 on 01/26/2022 at 15:58:03.
BEGIN options
  BOUNDNAMES
  SAVE_FLOWS
END options

BEGIN dimensions
  MAXBOUND  1098
END dimensions

BEGIN period  1
  1 42      29.98750000       0.00100000      27.98750000  r1
  1 6144      25.00000000       0.00100000      23.00000000  r1
  1 45      29.98750000       0.00100000      27.98750000  r1
  1 44      29.96250000       0.00100000      27.96250000  r1
  1 6055      25.01250000       0.00100000      23.01250000  r1
  1 47      29.96250000       0.00100000      27.96250000  r1
  1 50      29.93750000       0.00100000      27.93750000  r1
  1 6053      25.03750000       0.00100000      23.03750000  r1
  1 6058      25.01250000       0.00100000      23.01250000  r1
  1 53      29.93750000       0.00100000      27.93750000  r1
  1 52      29.91250000       0.00100000      27.91250000  r1
  1 6047      25.06250000       0.00100000      23.06250000  r1
  1 6056      25.03750000       0.00100000      23.03750000  r1
  1 55      29.91250000       0.00100000      27.91250000  r1
  1 138      29.88750000       0.00100000      27.88750000  r1
  1 6045      25.08750000       0.00100000      23.08750000  r1
  1 6050      25.06250000       0.00100000      23.06250000  r1
  1 141      29.88750000       0.00100000      27.88750000  r1
  1 140      29.86250000       0.00100000      27.86250000  r1
  1 5923      25.11250000       0.00100000      23.11250000  r1
  1 6048      25.08750000       0.00100000      23.08750000  r1
  1 143      29.86250000       0.00100000      27.86250000  r1
  1 146      29.83750000       0.00100000      27.83750000  r1
  1 5921      25.13750000       0.00100000      23.13750000  r1
  1 5926      25.11250000       0.00100000      23.11250000  r1
  1 149      29.83750000       0.00100000      27.83750000  r1
  1 148      29.81250000       0.00100000      27.81250000  r1
  1 5915      25.16250000       0.00100000      23.16250000  r1
  1 5924      25.13750000       0.00100000      23.13750000  r1
  1 151      29.81250000       0.00100000      27.81250000  r1
  1 234      29.78750000       0.00100000      27.78750000  r1
  1 5913      25.18750000       0.00100000      23.18750000  r1
  1 5918      25.16250000       0.00100000      23.16250000  r1
  1 237      29.78750000       0.00100000      27.78750000  r1
  1 236      29.76250000       0.00100000      27.76250000  r1
  1 5749      25.21250000       0.00100000      23.21250000  r1
  1 5916      25.18750000       0.00100000      23.18750000  r1
  1 239      29.76250000       0.00100000      27.76250000  r1
  1 242      29.73750000       0.00100000      27.73750000  r1
  1 5747      25.23750000       0.00100000      23.23750000  r1
  1 5752      25.21250000       0.00100000      23.21250000  r1
  1 245      29.73750000       0.00100000      27.73750000  r1
  1 244      29.71250000       0.00100000      27.71250000  r1
  1 5741      25.26250000       0.00100000      23.26250000  r1
  1 5750      25.23750000       0.00100000      23.23750000  r1
  1 247      29.71250000       0.00100000      27.71250000  r1
  1 330      29.68750000       0.00100000      27.68750000  r1
  1 5739      25.28750000       0.00100000      23.28750000  r1
  1 5744      25.26250000       0.00100000      23.26250000  r1
  1 333      29.68750000       0.00100000      27.68750000  r1
  1 332      29.66250000       0.00100000      27.66250000  r1
  1 5560      25.31250000       0.00100000      23.31250000  r1
  1 5742      25.28750000       0.00100000      23.28750000  r1
  1 335      29.66250000       0.00100000      27.66250000  r1
  1 338      29.63750000       0.00100000      27.63750000  r1
  1 5558      25.33750000       0.00100000      23.33750000  r1
  1 5563      25.31250000       0.00100000      23.31250000  r1
  1 341      29.63750000       0.00100000      27.63750000  r1
  1 340      29.61250000       0.00100000      27.61250000  r1
  1 5552      25.36250000       0.00100000      23.36250000  r1
  1 5561      25.33750000       0.00100000      23.33750000  r1
  1 343      29.61250000       0.00100000      27.61250000  r1
  1 426      29.58750000       0.00100000      27.58750000  r1
  1 5550      25.38750000       0.00100000      23.38750000  r1
  1 5555      25.36250000       0.00100000      23.36250000  r1
  1 429      29.58750000       0.00100000      27.58750000  r1
  1 428      29.56250000       0.00100000      27.56250000  r1
  1 5374      25.41250000       0.00100000      23.41250000  r1
  1 5553      25.38750000       0.00100000      23.38750000  r1
  1 431      29.56250000       0.00100000      27.56250000  r1
  1 434      29.53750000       0.00100000      27.53750000  r1
  1 5372      25.43750000       0.00100000      23.43750000  r1
  1 5377      25.41250000       0.00100000      23.41250000  r1
  1 437      29.53750000       0.00100000      27.53750000  r1
  1 436      29.51250000       0.00100000      27.51250000  r1
  1 5366      25.46250000       0.00100000      23.46250000  r1
  1 5375      25.43750000       0.00100000      23.43750000  r1
  1 439      29.51250000       0.00100000      27.51250000  r1
  1 522      29.48750000       0.00100000      27.48750000  r1
  1 5364      25.48750000       0.00100000      23.48750000  r1
  1 5369      25.46250000       0.00100000      23.46250000  r1
  1 525      29.48750000       0.00100000      27.48750000  r1
  1 524      29.46250000       0.00100000      27.46250000  r1
  1 5197      25.51250000       0.00100000      23.51250000  r1
  1 5367      25.48750000       0.00100000      23.48750000  r1
  1 527      29.46250000       0.00100000      27.46250000  r1
  1 530      29.43750000       0.00100000      27.43750000  r1
  1 5195      25.53750000       0.00100000      23.53750000  r1
  1 5200      25.51250000       0.00100000      23.51250000  r1
  1 533      29.43750000       0.00100000      27.43750000  r1
  1 532      29.41250000       0.00100000      27.41250000  r1
  1 5189      25.56250000       0.00100000      23.56250000  r1
  1 5198      25.53750000       0.00100000      23.53750000  r1
  1 535      29.41250000       0.00100000      27.41250000  r1
  1 618      29.38750000       0.00100000      27.38750000  r1
  1 5187      25.58750000       0.00100000      23.58750000  r1
  1 5192      25.56250000       0.00100000      23.56250000  r1
  1 621      29.38750000       0.00100000      27.38750000  r1
  1 620      29.36250000       0.00100000      27.36250000  r1
  1 5068      25.61250000       0.00100000      23.61250000  r1
  1 5190      25.58750000       0.00100000      23.58750000  r1
  1 623      29.36250000       0.00100000      27.36250000  r1
  1 626      29.33750000       0.00100000      27.33750000  r1
  1 5066      25.63750000       0.00100000      23.63750000  r1
  1 5071      25.61250000       0.00100000      23.61250000  r1
  1 629      29.33750000       0.00100000      27.33750000  r1
  1 628      29.31250000       0.00100000      27.31250000  r1
  1 5060      25.66250000       0.00100000      23.66250000  r1
  1 5069      25.63750000       0.00100000      23.63750000  r1
  1 631      29.31250000       0.00100000      27.31250000  r1
  1 714      29.28750000       0.00100000      27.28750000  r1
  1 5058      25.68750000       0.00100000      23.68750000  r1
  1 5063      25.66250000       0.00100000      23.66250000  r1
  1 717      29.28750000       0.00100000      27.28750000  r1
  1 716      29.26250000       0.00100000      27.26250000  r1
  1 4951      25.71250000       0.00100000      23.71250000  r1
  1 5061      25.68750000       0.00100000      23.68750000  r1
  1 719      29.26250000       0.00100000      27.26250000  r1
  1 722      29.23750000       0.00100000      27.23750000  r1
  1 4949      25.73750000       0.00100000      23.73750000  r1
  1 4954      25.71250000       0.00100000      23.71250000  r1
  1 725      29.23750000       0.00100000      27.23750000  r1
  1 724      29.21250000       0.00100000      27.21250000  r1
  1 4943      25.76250000       0.00100000      23.76250000  r1
  1 4952      25.73750000       0.00100000      23.73750000  r1
  1 727      29.21250000       0.00100000      27.21250000  r1
  1 810      29.18750000       0.00100000      27.18750000  r1
  1 4941      25.78750000       0.00100000      23.78750000  r1
  1 4946      25.76250000       0.00100000      23.76250000  r1
  1 813      29.18750000       0.00100000      27.18750000  r1
  1 812      29.16250000       0.00100000      27.16250000  r1
  1 4834      25.81250000       0.00100000      23.81250000  r1
  1 4944      25.78750000       0.00100000      23.78750000  r1
  1 815      29.16250000       0.00100000      27.16250000  r1
  1 818      29.13750000       0.00100000      27.13750000  r1
  1 4832      25.83750000       0.00100000      23.83750000  r1
  1 4837      25.81250000       0.00100000      23.81250000  r1
  1 821      29.13750000       0.00100000      27.13750000  r1
  1 820      29.11250000       0.00100000      27.11250000  r1
  1 4826      25.86250000       0.00100000      23.86250000  r1
  1 4835      25.83750000       0.00100000      23.83750000  r1
  1 823      29.11250000       0.00100000      27.11250000  r1
  1 906      29.08750000       0.00100000      27.08750000  r1
  1 4824      25.88750000       0.00100000      23.88750000  r1
  1 4829      25.86250000       0.00100000      23.86250000  r1
  1 909      29.08750000       0.00100000      27.08750000  r1
  1 908      29.06250000       0.00100000      27.06250000  r1
  1 4717      25.91250000       0.00100000      23.91250000  r1
  1 4827      25.88750000       0.00100000      23.88750000  r1
  1 911      29.06250000       0.00100000      27.06250000  r1
  1 914      29.03750000       0.00100000      27.03750000  r1
  1 4715      25.93750000       0.00100000      23.93750000  r1
  1 4720      25.91250000       0.00100000      23.91250000  r1
  1 917      29.03750000       0.00100000      27.03750000  r1
  1 916      29.01250000       0.00100000      27.01250000  r1
  1 4709      25.96250000       0.00100000      23.96250000  r1
  1 4718      25.93750000       0.00100000      23.93750000  r1
  1 919      29.01250000       0.00100000      27.01250000  r1
  1 1008      28.98750000       0.00100000      26.98750000  r1
  1 4707      25.98750000       0.00100000      23.98750000  r1
  1 4712      25.96250000       0.00100000      23.96250000  r1
  1 1011      28.98750000       0.00100000      26.98750000  r1
  1 1010      28.96250000       0.00100000      26.96250000  r1
  1 4600      26.01250000       0.00100000      24.01250000  r1
  1 4710      25.98750000       0.00100000      23.98750000  r1
  1 1013      28.96250000       0.00100000      26.96250000  r1
  1 1016      28.93750000       0.00100000      26.93750000  r1
  1 4598      26.03750000       0.00100000      24.03750000  r1
  1 4603      26.01250000       0.00100000      24.01250000  r1
  1 1019      28.93750000       0.00100000      26.93750000  r1
  1 1018      28.91250000       0.00100000      26.91250000  r1
  1 4592      26.06250000       0.00100000      24.06250000  r1
  1 4601      26.03750000       0.00100000      24.03750000  r1
  1 1021      28.91250000       0.00100000      26.91250000  r1
  1 1119      28.88750000       0.00100000      26.88750000  r1
  1 4590      26.08750000       0.00100000      24.08750000  r1
  1 4595      26.06250000       0.00100000      24.06250000  r1
  1 1122      28.88750000       0.00100000      26.88750000  r1
  1 1121      28.86250000       0.00100000      26.86250000  r1
  1 4483      26.11250000       0.00100000      24.11250000  r1
  1 4593      26.08750000       0.00100000      24.08750000  r1
  1 1124      28.86250000       0.00100000      26.86250000  r1
  1 1127      28.83750000       0.00100000      26.83750000  r1
  1 4481      26.13750000       0.00100000      24.13750000  r1
  1 4486      26.11250000       0.00100000      24.11250000  r1
  1 1130      28.83750000       0.00100000      26.83750000  r1
  1 1129      28.81250000       0.00100000      26.81250000  r1
  1 4475      26.16250000       0.00100000      24.16250000  r1
  1 4484      26.13750000       0.00100000      24.13750000  r1
  1 1132      28.81250000       0.00100000      26.81250000  r1
  1 1236      28.78750000       0.00100000      26.78750000  r1
  1 4473      26.18750000       0.00100000      24.18750000  r1
  1 4478      26.16250000       0.00100000      24.16250000  r1
  1 1239      28.78750000       0.00100000      26.78750000  r1
  1 1238      28.76250000       0.00100000      26.76250000  r1
  1 4366      26.21250000       0.00100000      24.21250000  r1
  1 4476      26.18750000       0.00100000      24.18750000  r1
  1 1241      28.76250000       0.00100000      26.76250000  r1
  1 1244      28.73750000       0.00100000      26.73750000  r1
  1 4364      26.23750000       0.00100000      24.23750000  r1
  1 4369      26.21250000       0.00100000      24.21250000  r1
  1 1247      28.73750000       0.00100000      26.73750000  r1
  1 1246      28.71250000       0.00100000      26.71250000  r1
  1 4358      26.26250000       0.00100000      24.26250000  r1
  1 4367      26.23750000       0.00100000      24.23750000  r1
  1 1249      28.71250000       0.00100000      26.71250000  r1
  1 1353      28.68750000       0.00100000      26.68750000  r1
  1 4356      26.28750000       0.00100000      24.28750000  r1
  1 4361      26.26250000       0.00100000      24.26250000  r1
  1 1356      28.68750000       0.00100000      26.68750000  r1
  1 1355      28.66250000       0.00100000      26.66250000  r1
  1 4249      26.31250000       0.00100000      24.31250000  r1
  1 4359      26.28750000       0.00100000      24.28750000  r1
  1 1358      28.66250000       0.00100000      26.66250000  r1
  1 1361      28.63750000       0.00100000      26.63750000  r1
  1 4247      26.33750000       0.00100000      24.33750000  r1
  1 4252      26.31250000       0.00100000      24.31250000  r1
  1 1364      28.63750000       0.00100000      26.63750000  r1
  1 1363      28.61250000       0.00100000      26.61250000  r1
  1 4241      26.36250000       0.00100000      24.36250000  r1
  1 4250      26.33750000       0.00100000      24.33750000  r1
  1 1366      28.61250000       0.00100000      26.61250000  r1
  1 1470      28.58750000       0.00100000      26.58750000  r1
  1 4239      26.38750000       0.00100000      24.38750000  r1
  1 4244      26.36250000       0.00100000      24.36250000  r1
  1 1473      28.58750000       0.00100000      26.58750000  r1
  1 1472      28.56250000       0.00100000      26.56250000  r1
  1 4132      26.41250000       0.00100000      24.41250000  r1
  1 4242      26.38750000       0.00100000      24.38750000  r1
  1 1475      28.56250000       0.00100000      26.56250000  r1
  1 1478      28.53750000       0.00100000      26.53750000  r1
  1 4130      26.43750000       0.00100000      24.43750000  r1
  1 4135      26.41250000       0.00100000      24.41250000  r1
  1 1481      28.53750000       0.00100000      26.53750000  r1
  1 1480      28.51250000       0.00100000      26.51250000  r1
  1 4124      26.46250000       0.00100000      24.46250000  r1
  1 4133      26.43750000       0.00100000      24.43750000  r1
  1 1483      28.51250000       0.00100000      26.51250000  r1
  1 1587      28.48750000       0.00100000      26.48750000  r1
  1 4122      26.48750000       0.00100000      24.48750000  r1
  1 4127      26.46250000       0.00100000      24.46250000  r1
  1 1590      28.48750000       0.00100000      26.48750000  r1
  1 1589      28.46250000       0.00100000      26.46250000  r1
  1 4015      26.51250000       0.00100000      24.51250000  r1
  1 4125      26.48750000       0.00100000      24.48750000  r1
  1 1592      28.46250000       0.00100000      26.46250000  r1
  1 1595      28.43750000       0.00100000      26.43750000  r1
  1 4013      26.53750000       0.00100000      24.53750000  r1
  1 4018      26.51250000       0.00100000      24.51250000  r1
  1 1598      28.43750000       0.00100000      26.43750000  r1
  1 1597      28.41250000       0.00100000      26.41250000  r1
  1 4007      26.56250000       0.00100000      24.56250000  r1
  1 4016      26.53750000       0.00100000      24.53750000  r1
  1 1600      28.41250000       0.00100000      26.41250000  r1
  1 1704      28.38750000       0.00100000      26.38750000  r1
  1 4005      26.58750000       0.00100000      24.58750000  r1
  1 4010      26.56250000       0.00100000      24.56250000  r1
  1 1707      28.38750000       0.00100000      26.38750000  r1
  1 1706      28.36250000       0.00100000      26.36250000  r1
  1 3898      26.61250000       0.00100000      24.61250000  r1
  1 4008      26.58750000       0.00100000      24.58750000  r1
  1 1709      28.36250000       0.00100000      26.36250000  r1
  1 1712      28.33750000       0.00100000      26.33750000  r1
  1 3896      26.63750000       0.00100000      24.63750000  r1
  1 3901      26.61250000       0.00100000      24.61250000  r1
  1 1715      28.33750000       0.00100000      26.33750000  r1
  1 1714      28.31250000       0.00100000      26.31250000  r1
  1 3890      26.66250000       0.00100000      24.66250000  r1
  1 3899      26.63750000       0.00100000      24.63750000  r1
  1 1717      28.31250000       0.00100000      26.31250000  r1
  1 1821      28.28750000       0.00100000      26.28750000  r1
  1 3888      26.68750000       0.00100000      24.68750000  r1
  1 3893      26.66250000       0.00100000      24.66250000  r1
  1 1824      28.28750000       0.00100000      26.28750000  r1
  1 1823      28.26250000       0.00100000      26.26250000  r1
  1 3781      26.71250000       0.00100000      24.71250000  r1
  1 3891      26.68750000       0.00100000      24.68750000  r1
  1 1826      28.26250000       0.00100000      26.26250000  r1
  1 1829      28.23750000       0.00100000      26.23750000  r1
  1 3779      26.73750000       0.00100000      24.73750000  r1
  1 3784      26.71250000       0.00100000      24.71250000  r1
  1 1832      28.23750000       0.00100000      26.23750000  r1
  1 1831      28.21250000       0.00100000      26.21250000  r1
  1 3773      26.76250000       0.00100000      24.76250000  r1
  1 3782      26.73750000       0.00100000      24.73750000  r1
  1 1834      28.21250000       0.00100000      26.21250000  r1
  1 1941      28.18750000       0.00100000      26.18750000  r1
  1 3771      26.78750000       0.00100000      24.78750000  r1
  1 3776      26.76250000       0.00100000      24.76250000  r1
  1 1944      28.18750000       0.00100000      26.18750000  r1
  1 1943      28.16250000       0.00100000      26.16250000  r1
  1 3664      26.81250000       0.00100000      24.81250000  r1
  1 3774      26.78750000       0.00100000      24.78750000  r1
  1 1946      28.16250000       0.00100000      26.16250000  r1
  1 1949      28.13750000       0.00100000      26.13750000  r1
  1 3662      26.83750000       0.00100000      24.83750000  r1
  1 3667      26.81250000       0.00100000      24.81250000  r1
  1 1952      28.13750000       0.00100000      26.13750000  r1
  1 1951      28.11250000       0.00100000      26.11250000  r1
  1 3656      26.86250000       0.00100000      24.86250000  r1
  1 3665      26.83750000       0.00100000      24.83750000  r1
  1 1954      28.11250000       0.00100000      26.11250000  r1
  1 2079      28.08750000       0.00100000      26.08750000  r1
  1 3654      26.88750000       0.00100000      24.88750000  r1
  1 3659      26.86250000       0.00100000      24.86250000  r1
  1 2082      28.08750000       0.00100000      26.08750000  r1
  1 2081      28.06250000       0.00100000      26.06250000  r1
  1 3547      26.91250000       0.00100000      24.91250000  r1
  1 3657      26.88750000       0.00100000      24.88750000  r1
  1 2084      28.06250000       0.00100000      26.06250000  r1
  1 2087      28.03750000       0.00100000      26.03750000  r1
  1 3545      26.93750000       0.00100000      24.93750000  r1
  1 3550      26.91250000       0.00100000      24.91250000  r1
  1 2090      28.03750000       0.00100000      26.03750000  r1
  1 2089      28.01250000       0.00100000      26.01250000  r1
  1 3539      26.96250000       0.00100000      24.96250000  r1
  1 3548      26.93750000       0.00100000      24.93750000  r1
  1 2092      28.01250000       0.00100000      26.01250000  r1
  1 2217      27.98750000       0.00100000      25.98750000  r1
  1 3537      26.98750000       0.00100000      24.98750000  r1
  1 3542      26.96250000       0.00100000      24.96250000  r1
  1 2220      27.98750000       0.00100000      25.98750000  r1
  1 2219      27.96250000       0.00100000      25.96250000  r1
  1 3430      27.01250000       0.00100000      25.01250000  r1
  1 3540      26.98750000       0.00100000      24.98750000  r1
  1 2222      27.96250000       0.00100000      25.96250000  r1
  1 2225      27.93750000       0.00100000      25.93750000  r1
  1 3428      27.03750000       0.00100000      25.03750000  r1
  1 3433      27.01250000       0.00100000      25.01250000  r1
  1 2228      27.93750000       0.00100000      25.93750000  r1
  1 2227      27.91250000       0.00100000      25.91250000  r1
  1 3422      27.06250000       0.00100000      25.06250000  r1
  1 3431      27.03750000       0.00100000      25.03750000  r1
  1 2230      27.91250000       0.00100000      25.91250000  r1
  1 2355      27.88750000       0.00100000      25.88750000  r1
  1 3420      27.08750000       0.00100000      25.08750000  r1
  1 3425      27.06250000       0.00100000      25.06250000  r1
  1 2358      27.88750000       0.00100000      25.88750000  r1
  1 2357      27.86250000       0.00100000      25.86250000  r1
  1 3313      27.11250000       0.00100000      25.11250000  r1
  1 3423      27.08750000       0.00100000      25.08750000  r1
  1 2360      27.86250000       0.00100000      25.86250000  r1
  1 2363      27.83750000       0.00100000      25.83750000  r1
  1 3311      27.13750000       0.00100000      25.13750000  r1
  1 3316      27.11250000       0.00100000      25.11250000  r1
  1 2366      27.83750000       0.00100000      25.83750000  r1
  1 2365      27.81250000       0.00100000      25.81250000  r1
  1 3305      27.16250000       0.00100000      25.16250000  r1
  1 3314      27.13750000       0.00100000      25.13750000  r1
  1 2368      27.81250000       0.00100000      25.81250000  r1
  1 2493      27.78750000       0.00100000      25.78750000  r1
  1 3303      27.18750000       0.00100000      25.18750000  r1
  1 3308      27.16250000       0.00100000      25.16250000  r1
  1 2496      27.78750000       0.00100000      25.78750000  r1
  1 2495      27.76250000       0.00100000      25.76250000  r1
  1 3193      27.21250000       0.00100000      25.21250000  r1
  1 3306      27.18750000       0.00100000      25.18750000  r1
  1 2498      27.76250000       0.00100000      25.76250000  r1
  1 2501      27.73750000       0.00100000      25.73750000  r1
  1 3191      27.23750000       0.00100000      25.23750000  r1
  1 3196      27.21250000       0.00100000      25.21250000  r1
  1 2504      27.73750000       0.00100000      25.73750000  r1
  1 2503      27.71250000       0.00100000      25.71250000  r1
  1 3185      27.26250000       0.00100000      25.26250000  r1
  1 3194      27.23750000       0.00100000      25.23750000  r1
  1 2506      27.71250000       0.00100000      25.71250000  r1
  1 2631      27.68750000       0.00100000      25.68750000  r1
  1 3183      27.28750000       0.00100000      25.28750000  r1
  1 3188      27.26250000       0.00100000      25.26250000  r1
  1 2634      27.68750000       0.00100000      25.68750000  r1
  1 2633      27.66250000       0.00100000      25.66250000  r1
  1 3055      27.31250000       0.00100000      25.31250000  r1
  1 3186      27.28750000       0.00100000      25.28750000  r1
  1 2636      27.66250000       0.00100000      25.66250000  r1
  1 2639      27.63750000       0.00100000      25.63750000  r1
  1 3053      27.33750000       0.00100000      25.33750000  r1
  1 3058      27.31250000       0.00100000      25.31250000  r1
  1 2642      27.63750000       0.00100000      25.63750000  r1
  1 2641      27.61250000       0.00100000      25.61250000  r1
  1 3047      27.36250000       0.00100000      25.36250000  r1
  1 3056      27.33750000       0.00100000      25.33750000  r1
  1 2644      27.61250000       0.00100000      25.61250000  r1
  1 2769      27.58750000       0.00100000      25.58750000  r1
  1 3045      27.38750000       0.00100000      25.38750000  r1
  1 3050      27.36250000       0.00100000      25.36250000  r1
  1 2772      27.58750000       0.00100000      25.58750000  r1
  1 2771      27.56250000       0.00100000      25.56250000  r1
  1 2917      27.41250000       0.00100000      25.41250000  r1
  1 3048      27.38750000       0.00100000      25.38750000  r1
  1 2774      27.56250000       0.00100000      25.56250000  r1
  1 2777      27.53750000       0.00100000      25.53750000  r1
  1 2915      27.43750000       0.00100000      25.43750000  r1
  1 2920      27.41250000       0.00100000      25.41250000  r1
  1 2780      27.53750000       0.00100000      25.53750000  r1
  1 2779      27.51250000       0.00100000      25.51250000  r1
  1 2909      27.46250000       0.00100000      25.46250000  r1
  1 2918      27.43750000       0.00100000      25.43750000  r1
  1 2782      27.51250000       0.00100000      25.51250000  r1
  1 2907      27.48750000       0.00100000      25.48750000  r1
  1 2912      27.46250000       0.00100000      25.46250000  r1
  1 2910      27.48750000       0.00100000      25.48750000  r1
  1 1067      32.97422037       0.00100000      30.97422037  r2
  1 1069      32.94760915       0.00100000      30.94760915  r2
  1 1068      32.92266112       0.00100000      30.92266112  r2
  1 1074      32.89604990       0.00100000      30.89604990  r2
  1 1071      32.87110187       0.00100000      30.87110187  r2
  1 6057      25.07733888       0.00100000      23.07733888  r2
  1 1073      32.84449064       0.00100000      30.84449064  r2
  1 6051      25.10395010       0.00100000      23.10395010  r2
  1 1072      32.81954262       0.00100000      30.81954262  r2
  1 6062      25.12889813       0.00100000      23.12889813  r2
  1 1188      32.79293139       0.00100000      30.79293139  r2
  1 6060      25.15550936       0.00100000      23.15550936  r2
  1 1177      32.76798337       0.00100000      30.76798337  r2
  1 6061      25.18045738       0.00100000      23.18045738  r2
  1 1179      32.74137214       0.00100000      30.74137214  r2
  1 5936      25.20706861       0.00100000      23.20706861  r2
  1 1178      32.71642412       0.00100000      30.71642412  r2
  1 5939      25.23201663       0.00100000      23.23201663  r2
  1 1184      32.68981289       0.00100000      30.68981289  r2
  1 5937      25.25862786       0.00100000      23.25862786  r2
  1 1181      32.66486486       0.00100000      30.66486486  r2
  1 5938      25.28357588       0.00100000      23.28357588  r2
  1 1183      32.63825364       0.00100000      30.63825364  r2
  1 5932      25.31018711       0.00100000      23.31018711  r2
  1 1182      32.61330561       0.00100000      30.61330561  r2
  1 5943      25.33513514       0.00100000      23.33513514  r2
  1 1304      32.58669439       0.00100000      30.58669439  r2
  1 5941      25.36174636       0.00100000      23.36174636  r2
  1 1293      32.56174636       0.00100000      30.56174636  r2
  1 5942      25.38669439       0.00100000      23.38669439  r2
  1 1295      32.53513514       0.00100000      30.53513514  r2
  1 5766      25.41330561       0.00100000      23.41330561  r2
  1 1294      32.51018711       0.00100000      30.51018711  r2
  1 5769      25.43825364       0.00100000      23.43825364  r2
  1 1300      32.48357588       0.00100000      30.48357588  r2
  1 5767      25.46486486       0.00100000      23.46486486  r2
  1 1297      32.45862786       0.00100000      30.45862786  r2
  1 5768      25.48981289       0.00100000      23.48981289  r2
  1 1299      32.43201663       0.00100000      30.43201663  r2
  1 5762      25.51642412       0.00100000      23.51642412  r2
  1 1298      32.40706861       0.00100000      30.40706861  r2
  1 5773      25.54137214       0.00100000      23.54137214  r2
  1 1420      32.38045738       0.00100000      30.38045738  r2
  1 5771      25.56798337       0.00100000      23.56798337  r2
  1 1409      32.35550936       0.00100000      30.35550936  r2
  1 5772      25.59293139       0.00100000      23.59293139  r2
  1 1411      32.32889813       0.00100000      30.32889813  r2
  1 5581      25.61954262       0.00100000      23.61954262  r2
  1 1410      32.30395010       0.00100000      30.30395010  r2
  1 5584      25.64449064       0.00100000      23.64449064  r2
  1 1416      32.27733888       0.00100000      30.27733888  r2
  1 5582      25.67110187       0.00100000      23.67110187  r2
  1 1413      32.25239085       0.00100000      30.25239085  r2
  1 5583      25.69604990       0.00100000      23.69604990  r2
  1 1415      32.22577963       0.00100000      30.22577963  r2
  1 5577      25.72266112       0.00100000      23.72266112  r2
  1 5588      25.74760915       0.00100000      23.74760915  r2
  1 1536      32.17422037       0.00100000      30.17422037  r2
  1 5586      25.77422037       0.00100000      23.77422037  r2
  1 1538      32.14760915       0.00100000      30.14760915  r2
  1 1527      32.12266112       0.00100000      30.12266112  r2
  1 5396      25.82577963       0.00100000      23.82577963  r2
  1 1533      32.09604990       0.00100000      30.09604990  r2
  1 5394      25.85239085       0.00100000      23.85239085  r2
  1 1532      32.07110187       0.00100000      30.07110187  r2
  1 5397      25.87733888       0.00100000      23.87733888  r2