# File generated by Flopy version 3.3.5 on 01/28/2022 at 12:41:40.
BEGIN options
END options

