# File generated by Flopy version 3.3.5 on 01/27/2022 at 11:39:44.
BEGIN griddata
  strt
    CONSTANT      30.00000000
END griddata

