# File generated by Flopy version 3.3.5 on 01/26/2022 at 15:58:01.
BEGIN options
END options

