# File generated by Flopy version 3.3.4 on 01/28/2022 at 18:16:17.
BEGIN options
  BOUNDNAMES
  SAVE_FLOWS
END options

BEGIN dimensions
  MAXBOUND  1098
END dimensions

BEGIN period  1
  1 63      29.98750000       0.00100000      27.98750000  r1
  1 11820      25.00000000       0.00100000      23.00000000  r1
  1 66      29.98750000       0.00100000      27.98750000  r1
  1 65      29.96250000       0.00100000      27.96250000  r1
  1 11665      25.01250000       0.00100000      23.01250000  r1
  1 68      29.96250000       0.00100000      27.96250000  r1
  1 71      29.93750000       0.00100000      27.93750000  r1
  1 11663      25.03750000       0.00100000      23.03750000  r1
  1 11668      25.01250000       0.00100000      23.01250000  r1
  1 74      29.93750000       0.00100000      27.93750000  r1
  1 73      29.91250000       0.00100000      27.91250000  r1
  1 11657      25.06250000       0.00100000      23.06250000  r1
  1 11666      25.03750000       0.00100000      23.03750000  r1
  1 76      29.91250000       0.00100000      27.91250000  r1
  1 201      29.88750000       0.00100000      27.88750000  r1
  1 11655      25.08750000       0.00100000      23.08750000  r1
  1 11660      25.06250000       0.00100000      23.06250000  r1
  1 204      29.88750000       0.00100000      27.88750000  r1
  1 203      29.86250000       0.00100000      27.86250000  r1
  1 11464      25.11250000       0.00100000      23.11250000  r1
  1 11658      25.08750000       0.00100000      23.08750000  r1
  1 206      29.86250000       0.00100000      27.86250000  r1
  1 209      29.83750000       0.00100000      27.83750000  r1
  1 11462      25.13750000       0.00100000      23.13750000  r1
  1 11467      25.11250000       0.00100000      23.11250000  r1
  1 212      29.83750000       0.00100000      27.83750000  r1
  1 211      29.81250000       0.00100000      27.81250000  r1
  1 11456      25.16250000       0.00100000      23.16250000  r1
  1 11465      25.13750000       0.00100000      23.13750000  r1
  1 214      29.81250000       0.00100000      27.81250000  r1
  1 339      29.78750000       0.00100000      27.78750000  r1
  1 11454      25.18750000       0.00100000      23.18750000  r1
  1 11459      25.16250000       0.00100000      23.16250000  r1
  1 342      29.78750000       0.00100000      27.78750000  r1
  1 341      29.76250000       0.00100000      27.76250000  r1
  1 11209      25.21250000       0.00100000      23.21250000  r1
  1 11457      25.18750000       0.00100000      23.18750000  r1
  1 344      29.76250000       0.00100000      27.76250000  r1
  1 347      29.73750000       0.00100000      27.73750000  r1
  1 11207      25.23750000       0.00100000      23.23750000  r1
  1 11212      25.21250000       0.00100000      23.21250000  r1
  1 350      29.73750000       0.00100000      27.73750000  r1
  1 349      29.71250000       0.00100000      27.71250000  r1
  1 11201      25.26250000       0.00100000      23.26250000  r1
  1 11210      25.23750000       0.00100000      23.23750000  r1
  1 352      29.71250000       0.00100000      27.71250000  r1
  1 477      29.68750000       0.00100000      27.68750000  r1
  1 11199      25.28750000       0.00100000      23.28750000  r1
  1 11204      25.26250000       0.00100000      23.26250000  r1
  1 480      29.68750000       0.00100000      27.68750000  r1
  1 479      29.66250000       0.00100000      27.66250000  r1
  1 10930      25.31250000       0.00100000      23.31250000  r1
  1 11202      25.28750000       0.00100000      23.28750000  r1
  1 482      29.66250000       0.00100000      27.66250000  r1
  1 485      29.63750000       0.00100000      27.63750000  r1
  1 10928      25.33750000       0.00100000      23.33750000  r1
  1 10933      25.31250000       0.00100000      23.31250000  r1
  1 488      29.63750000       0.00100000      27.63750000  r1
  1 487      29.61250000       0.00100000      27.61250000  r1
  1 10922      25.36250000       0.00100000      23.36250000  r1
  1 10931      25.33750000       0.00100000      23.33750000  r1
  1 490      29.61250000       0.00100000      27.61250000  r1
  1 615      29.58750000       0.00100000      27.58750000  r1
  1 10920      25.38750000       0.00100000      23.38750000  r1
  1 10925      25.36250000       0.00100000      23.36250000  r1
  1 618      29.58750000       0.00100000      27.58750000  r1
  1 617      29.56250000       0.00100000      27.56250000  r1
  1 10642      25.41250000       0.00100000      23.41250000  r1
  1 10923      25.38750000       0.00100000      23.38750000  r1
  1 620      29.56250000       0.00100000      27.56250000  r1
  1 623      29.53750000       0.00100000      27.53750000  r1
  1 10640      25.43750000       0.00100000      23.43750000  r1
  1 10645      25.41250000       0.00100000      23.41250000  r1
  1 626      29.53750000       0.00100000      27.53750000  r1
  1 625      29.51250000       0.00100000      27.51250000  r1
  1 10634      25.46250000       0.00100000      23.46250000  r1
  1 10643      25.43750000       0.00100000      23.43750000  r1
  1 628      29.51250000       0.00100000      27.51250000  r1
  1 753      29.48750000       0.00100000      27.48750000  r1
  1 10632      25.48750000       0.00100000      23.48750000  r1
  1 10637      25.46250000       0.00100000      23.46250000  r1
  1 756      29.48750000       0.00100000      27.48750000  r1
  1 755      29.46250000       0.00100000      27.46250000  r1
  1 10348      25.51250000       0.00100000      23.51250000  r1
  1 10635      25.48750000       0.00100000      23.48750000  r1
  1 758      29.46250000       0.00100000      27.46250000  r1
  1 761      29.43750000       0.00100000      27.43750000  r1
  1 10346      25.53750000       0.00100000      23.53750000  r1
  1 10351      25.51250000       0.00100000      23.51250000  r1
  1 764      29.43750000       0.00100000      27.43750000  r1
  1 763      29.41250000       0.00100000      27.41250000  r1
  1 10340      25.56250000       0.00100000      23.56250000  r1
  1 10349      25.53750000       0.00100000      23.53750000  r1
  1 766      29.41250000       0.00100000      27.41250000  r1
  1 891      29.38750000       0.00100000      27.38750000  r1
  1 10338      25.58750000       0.00100000      23.58750000  r1
  1 10343      25.56250000       0.00100000      23.56250000  r1
  1 894      29.38750000       0.00100000      27.38750000  r1
  1 893      29.36250000       0.00100000      27.36250000  r1
  1 10096      25.61250000       0.00100000      23.61250000  r1
  1 10341      25.58750000       0.00100000      23.58750000  r1
  1 896      29.36250000       0.00100000      27.36250000  r1
  1 899      29.33750000       0.00100000      27.33750000  r1
  1 10094      25.63750000       0.00100000      23.63750000  r1
  1 10099      25.61250000       0.00100000      23.61250000  r1
  1 902      29.33750000       0.00100000      27.33750000  r1
  1 901      29.31250000       0.00100000      27.31250000  r1
  1 10088      25.66250000       0.00100000      23.66250000  r1
  1 10097      25.63750000       0.00100000      23.63750000  r1
  1 904      29.31250000       0.00100000      27.31250000  r1
  1 1029      29.28750000       0.00100000      27.28750000  r1
  1 10086      25.68750000       0.00100000      23.68750000  r1
  1 10091      25.66250000       0.00100000      23.66250000  r1
  1 1032      29.28750000       0.00100000      27.28750000  r1
  1 1031      29.26250000       0.00100000      27.26250000  r1
  1 9853      25.71250000       0.00100000      23.71250000  r1
  1 10089      25.68750000       0.00100000      23.68750000  r1
  1 1034      29.26250000       0.00100000      27.26250000  r1
  1 1037      29.23750000       0.00100000      27.23750000  r1
  1 9851      25.73750000       0.00100000      23.73750000  r1
  1 9856      25.71250000       0.00100000      23.71250000  r1
  1 1040      29.23750000       0.00100000      27.23750000  r1
  1 1039      29.21250000       0.00100000      27.21250000  r1
  1 9845      25.76250000       0.00100000      23.76250000  r1
  1 9854      25.73750000       0.00100000      23.73750000  r1
  1 1042      29.21250000       0.00100000      27.21250000  r1
  1 1173      29.18750000       0.00100000      27.18750000  r1
  1 9843      25.78750000       0.00100000      23.78750000  r1
  1 9848      25.76250000       0.00100000      23.76250000  r1
  1 1176      29.18750000       0.00100000      27.18750000  r1
  1 1175      29.16250000       0.00100000      27.16250000  r1
  1 9610      25.81250000       0.00100000      23.81250000  r1
  1 9846      25.78750000       0.00100000      23.78750000  r1
  1 1178      29.16250000       0.00100000      27.16250000  r1
  1 1181      29.13750000       0.00100000      27.13750000  r1
  1 9608      25.83750000       0.00100000      23.83750000  r1
  1 9613      25.81250000       0.00100000      23.81250000  r1
  1 1184      29.13750000       0.00100000      27.13750000  r1
  1 1183      29.11250000       0.00100000      27.11250000  r1
  1 9602      25.86250000       0.00100000      23.86250000  r1
  1 9611      25.83750000       0.00100000      23.83750000  r1
  1 1186      29.11250000       0.00100000      27.11250000  r1
  1 1341      29.08750000       0.00100000      27.08750000  r1
  1 9600      25.88750000       0.00100000      23.88750000  r1
  1 9605      25.86250000       0.00100000      23.86250000  r1
  1 1344      29.08750000       0.00100000      27.08750000  r1
  1 1343      29.06250000       0.00100000      27.06250000  r1
  1 9367      25.91250000       0.00100000      23.91250000  r1
  1 9603      25.88750000       0.00100000      23.88750000  r1
  1 1346      29.06250000       0.00100000      27.06250000  r1
  1 1349      29.03750000       0.00100000      27.03750000  r1
  1 9365      25.93750000       0.00100000      23.93750000  r1
  1 9370      25.91250000       0.00100000      23.91250000  r1
  1 1352      29.03750000       0.00100000      27.03750000  r1
  1 1351      29.01250000       0.00100000      27.01250000  r1
  1 9359      25.96250000       0.00100000      23.96250000  r1
  1 9368      25.93750000       0.00100000      23.93750000  r1
  1 1354      29.01250000       0.00100000      27.01250000  r1
  1 1524      28.98750000       0.00100000      26.98750000  r1
  1 9357      25.98750000       0.00100000      23.98750000  r1
  1 9362      25.96250000       0.00100000      23.96250000  r1
  1 1527      28.98750000       0.00100000      26.98750000  r1
  1 1526      28.96250000       0.00100000      26.96250000  r1
  1 9124      26.01250000       0.00100000      24.01250000  r1
  1 9360      25.98750000       0.00100000      23.98750000  r1
  1 1529      28.96250000       0.00100000      26.96250000  r1
  1 1532      28.93750000       0.00100000      26.93750000  r1
  1 9122      26.03750000       0.00100000      24.03750000  r1
  1 9127      26.01250000       0.00100000      24.01250000  r1
  1 1535      28.93750000       0.00100000      26.93750000  r1
  1 1534      28.91250000       0.00100000      26.91250000  r1
  1 9116      26.06250000       0.00100000      24.06250000  r1
  1 9125      26.03750000       0.00100000      24.03750000  r1
  1 1537      28.91250000       0.00100000      26.91250000  r1
  1 1722      28.88750000       0.00100000      26.88750000  r1
  1 9114      26.08750000       0.00100000      24.08750000  r1
  1 9119      26.06250000       0.00100000      24.06250000  r1
  1 1725      28.88750000       0.00100000      26.88750000  r1
  1 1724      28.86250000       0.00100000      26.86250000  r1
  1 8887      26.11250000       0.00100000      24.11250000  r1
  1 9117      26.08750000       0.00100000      24.08750000  r1
  1 1727      28.86250000       0.00100000      26.86250000  r1
  1 1730      28.83750000       0.00100000      26.83750000  r1
  1 8885      26.13750000       0.00100000      24.13750000  r1
  1 8890      26.11250000       0.00100000      24.11250000  r1
  1 1733      28.83750000       0.00100000      26.83750000  r1
  1 1732      28.81250000       0.00100000      26.81250000  r1
  1 8879      26.16250000       0.00100000      24.16250000  r1
  1 8888      26.13750000       0.00100000      24.13750000  r1
  1 1735      28.81250000       0.00100000      26.81250000  r1
  1 1935      28.78750000       0.00100000      26.78750000  r1
  1 8877      26.18750000       0.00100000      24.18750000  r1
  1 8882      26.16250000       0.00100000      24.16250000  r1
  1 1938      28.78750000       0.00100000      26.78750000  r1
  1 1937      28.76250000       0.00100000      26.76250000  r1
  1 8650      26.21250000       0.00100000      24.21250000  r1
  1 8880      26.18750000       0.00100000      24.18750000  r1
  1 1940      28.76250000       0.00100000      26.76250000  r1
  1 1943      28.73750000       0.00100000      26.73750000  r1
  1 8648      26.23750000       0.00100000      24.23750000  r1
  1 8653      26.21250000       0.00100000      24.21250000  r1
  1 1946      28.73750000       0.00100000      26.73750000  r1
  1 1945      28.71250000       0.00100000      26.71250000  r1
  1 8642      26.26250000       0.00100000      24.26250000  r1
  1 8651      26.23750000       0.00100000      24.23750000  r1
  1 1948      28.71250000       0.00100000      26.71250000  r1
  1 2163      28.68750000       0.00100000      26.68750000  r1
  1 8640      26.28750000       0.00100000      24.28750000  r1
  1 8645      26.26250000       0.00100000      24.26250000  r1
  1 2166      28.68750000       0.00100000      26.68750000  r1
  1 2165      28.66250000       0.00100000      26.66250000  r1
  1 8410      26.31250000       0.00100000      24.31250000  r1
  1 8643      26.28750000       0.00100000      24.28750000  r1
  1 2168      28.66250000       0.00100000      26.66250000  r1
  1 2171      28.63750000       0.00100000      26.63750000  r1
  1 8408      26.33750000       0.00100000      24.33750000  r1
  1 8413      26.31250000       0.00100000      24.31250000  r1
  1 2174      28.63750000       0.00100000      26.63750000  r1
  1 2173      28.61250000       0.00100000      26.61250000  r1
  1 8402      26.36250000       0.00100000      24.36250000  r1
  1 8411      26.33750000       0.00100000      24.33750000  r1
  1 2176      28.61250000       0.00100000      26.61250000  r1
  1 2397      28.58750000       0.00100000      26.58750000  r1
  1 8400      26.38750000       0.00100000      24.38750000  r1
  1 8405      26.36250000       0.00100000      24.36250000  r1
  1 2400      28.58750000       0.00100000      26.58750000  r1
  1 2399      28.56250000       0.00100000      26.56250000  r1
  1 8170      26.41250000       0.00100000      24.41250000  r1
  1 8403      26.38750000       0.00100000      24.38750000  r1
  1 2402      28.56250000       0.00100000      26.56250000  r1
  1 2405      28.53750000       0.00100000      26.53750000  r1
  1 8168      26.43750000       0.00100000      24.43750000  r1
  1 8173      26.41250000       0.00100000      24.41250000  r1
  1 2408      28.53750000       0.00100000      26.53750000  r1
  1 2407      28.51250000       0.00100000      26.51250000  r1
  1 8162      26.46250000       0.00100000      24.46250000  r1
  1 8171      26.43750000       0.00100000      24.43750000  r1
  1 2410      28.51250000       0.00100000      26.51250000  r1
  1 2634      28.48750000       0.00100000      26.48750000  r1
  1 8160      26.48750000       0.00100000      24.48750000  r1
  1 8165      26.46250000       0.00100000      24.46250000  r1
  1 2637      28.48750000       0.00100000      26.48750000  r1
  1 2636      28.46250000       0.00100000      26.46250000  r1
  1 7930      26.51250000       0.00100000      24.51250000  r1
  1 8163      26.48750000       0.00100000      24.48750000  r1
  1 2639      28.46250000       0.00100000      26.46250000  r1
  1 2642      28.43750000       0.00100000      26.43750000  r1
  1 7928      26.53750000       0.00100000      24.53750000  r1
  1 7933      26.51250000       0.00100000      24.51250000  r1
  1 2645      28.43750000       0.00100000      26.43750000  r1
  1 2644      28.41250000       0.00100000      26.41250000  r1
  1 7922      26.56250000       0.00100000      24.56250000  r1
  1 7931      26.53750000       0.00100000      24.53750000  r1
  1 2647      28.41250000       0.00100000      26.41250000  r1
  1 2874      28.38750000       0.00100000      26.38750000  r1
  1 7920      26.58750000       0.00100000      24.58750000  r1
  1 7925      26.56250000       0.00100000      24.56250000  r1
  1 2877      28.38750000       0.00100000      26.38750000  r1
  1 2876      28.36250000       0.00100000      26.36250000  r1
  1 7690      26.61250000       0.00100000      24.61250000  r1
  1 7923      26.58750000       0.00100000      24.58750000  r1
  1 2879      28.36250000       0.00100000      26.36250000  r1
  1 2882      28.33750000       0.00100000      26.33750000  r1
  1 7688      26.63750000       0.00100000      24.63750000  r1
  1 7693      26.61250000       0.00100000      24.61250000  r1
  1 2885      28.33750000       0.00100000      26.33750000  r1
  1 2884      28.31250000       0.00100000      26.31250000  r1
  1 7682      26.66250000       0.00100000      24.66250000  r1
  1 7691      26.63750000       0.00100000      24.63750000  r1
  1 2887      28.31250000       0.00100000      26.31250000  r1
  1 3144      28.28750000       0.00100000      26.28750000  r1
  1 7680      26.68750000       0.00100000      24.68750000  r1
  1 7685      26.66250000       0.00100000      24.66250000  r1
  1 3147      28.28750000       0.00100000      26.28750000  r1
  1 3146      28.26250000       0.00100000      26.26250000  r1
  1 7450      26.71250000       0.00100000      24.71250000  r1
  1 7683      26.68750000       0.00100000      24.68750000  r1
  1 3149      28.26250000       0.00100000      26.26250000  r1
  1 3152      28.23750000       0.00100000      26.23750000  r1
  1 7448      26.73750000       0.00100000      24.73750000  r1
  1 7453      26.71250000       0.00100000      24.71250000  r1
  1 3155      28.23750000       0.00100000      26.23750000  r1
  1 3154      28.21250000       0.00100000      26.21250000  r1
  1 7442      26.76250000       0.00100000      24.76250000  r1
  1 7451      26.73750000       0.00100000      24.73750000  r1
  1 3157      28.21250000       0.00100000      26.21250000  r1
  1 3444      28.18750000       0.00100000      26.18750000  r1
  1 7440      26.78750000       0.00100000      24.78750000  r1
  1 7445      26.76250000       0.00100000      24.76250000  r1
  1 3447      28.18750000       0.00100000      26.18750000  r1
  1 3446      28.16250000       0.00100000      26.16250000  r1
  1 7210      26.81250000       0.00100000      24.81250000  r1
  1 7443      26.78750000       0.00100000      24.78750000  r1
  1 3449      28.16250000       0.00100000      26.16250000  r1
  1 3452      28.13750000       0.00100000      26.13750000  r1
  1 7208      26.83750000       0.00100000      24.83750000  r1
  1 7213      26.81250000       0.00100000      24.81250000  r1
  1 3455      28.13750000       0.00100000      26.13750000  r1
  1 3454      28.11250000       0.00100000      26.11250000  r1
  1 7202      26.86250000       0.00100000      24.86250000  r1
  1 7211      26.83750000       0.00100000      24.83750000  r1
  1 3457      28.11250000       0.00100000      26.11250000  r1
  1 3744      28.08750000       0.00100000      26.08750000  r1
  1 7200      26.88750000       0.00100000      24.88750000  r1
  1 7205      26.86250000       0.00100000      24.86250000  r1
  1 3747      28.08750000       0.00100000      26.08750000  r1
  1 3746      28.06250000       0.00100000      26.06250000  r1
  1 6973      26.91250000       0.00100000      24.91250000  r1
  1 7203      26.88750000       0.00100000      24.88750000  r1
  1 3749      28.06250000       0.00100000      26.06250000  r1
  1 3752      28.03750000       0.00100000      26.03750000  r1
  1 6971      26.93750000       0.00100000      24.93750000  r1
  1 6976      26.91250000       0.00100000      24.91250000  r1
  1 3755      28.03750000       0.00100000      26.03750000  r1
  1 3754      28.01250000       0.00100000      26.01250000  r1
  1 6965      26.96250000       0.00100000      24.96250000  r1
  1 6974      26.93750000       0.00100000      24.93750000  r1
  1 3757      28.01250000       0.00100000      26.01250000  r1
  1 4044      27.98750000       0.00100000      25.98750000  r1
  1 6963      26.98750000       0.00100000      24.98750000  r1
  1 6968      26.96250000       0.00100000      24.96250000  r1
  1 4047      27.98750000       0.00100000      25.98750000  r1
  1 4046      27.96250000       0.00100000      25.96250000  r1
  1 6736      27.01250000       0.00100000      25.01250000  r1
  1 6966      26.98750000       0.00100000      24.98750000  r1
  1 4049      27.96250000       0.00100000      25.96250000  r1
  1 4052      27.93750000       0.00100000      25.93750000  r1
  1 6734      27.03750000       0.00100000      25.03750000  r1
  1 6739      27.01250000       0.00100000      25.01250000  r1
  1 4055      27.93750000       0.00100000      25.93750000  r1
  1 4054      27.91250000       0.00100000      25.91250000  r1
  1 6728      27.06250000       0.00100000      25.06250000  r1
  1 6737      27.03750000       0.00100000      25.03750000  r1
  1 4057      27.91250000       0.00100000      25.91250000  r1
  1 4344      27.88750000       0.00100000      25.88750000  r1
  1 6726      27.08750000       0.00100000      25.08750000  r1
  1 6731      27.06250000       0.00100000      25.06250000  r1
  1 4347      27.88750000       0.00100000      25.88750000  r1
  1 4346      27.86250000       0.00100000      25.86250000  r1
  1 6463      27.11250000       0.00100000      25.11250000  r1
  1 6729      27.08750000       0.00100000      25.08750000  r1
  1 4349      27.86250000       0.00100000      25.86250000  r1
  1 4352      27.83750000       0.00100000      25.83750000  r1
  1 6461      27.13750000       0.00100000      25.13750000  r1
  1 6466      27.11250000       0.00100000      25.11250000  r1
  1 4355      27.83750000       0.00100000      25.83750000  r1
  1 4354      27.81250000       0.00100000      25.81250000  r1
  1 6455      27.16250000       0.00100000      25.16250000  r1
  1 6464      27.13750000       0.00100000      25.13750000  r1
  1 4357      27.81250000       0.00100000      25.81250000  r1
  1 4641      27.78750000       0.00100000      25.78750000  r1
  1 6453      27.18750000       0.00100000      25.18750000  r1
  1 6458      27.16250000       0.00100000      25.16250000  r1
  1 4644      27.78750000       0.00100000      25.78750000  r1
  1 4643      27.76250000       0.00100000      25.76250000  r1
  1 6160      27.21250000       0.00100000      25.21250000  r1
  1 6456      27.18750000       0.00100000      25.18750000  r1
  1 4646      27.76250000       0.00100000      25.76250000  r1
  1 4649      27.73750000       0.00100000      25.73750000  r1
  1 6158      27.23750000       0.00100000      25.23750000  r1
  1 6163      27.21250000       0.00100000      25.21250000  r1
  1 4652      27.73750000       0.00100000      25.73750000  r1
  1 4651      27.71250000       0.00100000      25.71250000  r1
  1 6152      27.26250000       0.00100000      25.26250000  r1
  1 6161      27.23750000       0.00100000      25.23750000  r1
  1 4654      27.71250000       0.00100000      25.71250000  r1
  1 4938      27.68750000       0.00100000      25.68750000  r1
  1 6150      27.28750000       0.00100000      25.28750000  r1
  1 6155      27.26250000       0.00100000      25.26250000  r1
  1 4941      27.68750000       0.00100000      25.68750000  r1
  1 4940      27.66250000       0.00100000      25.66250000  r1
  1 5857      27.31250000       0.00100000      25.31250000  r1
  1 6153      27.28750000       0.00100000      25.28750000  r1
  1 4943      27.66250000       0.00100000      25.66250000  r1
  1 4946      27.63750000       0.00100000      25.63750000  r1
  1 5855      27.33750000       0.00100000      25.33750000  r1
  1 5860      27.31250000       0.00100000      25.31250000  r1
  1 4949      27.63750000       0.00100000      25.63750000  r1
  1 4948      27.61250000       0.00100000      25.61250000  r1
  1 5849      27.36250000       0.00100000      25.36250000  r1
  1 5858      27.33750000       0.00100000      25.33750000  r1
  1 4951      27.61250000       0.00100000      25.61250000  r1
  1 5241      27.58750000       0.00100000      25.58750000  r1
  1 5847      27.38750000       0.00100000      25.38750000  r1
  1 5852      27.36250000       0.00100000      25.36250000  r1
  1 5244      27.58750000       0.00100000      25.58750000  r1
  1 5243      27.56250000       0.00100000      25.56250000  r1
  1 5554      27.41250000       0.00100000      25.41250000  r1
  1 5850      27.38750000       0.00100000      25.38750000  r1
  1 5246      27.56250000       0.00100000      25.56250000  r1
  1 5249      27.53750000       0.00100000      25.53750000  r1
  1 5552      27.43750000       0.00100000      25.43750000  r1
  1 5557      27.41250000       0.00100000      25.41250000  r1
  1 5252      27.53750000       0.00100000      25.53750000  r1
  1 5251      27.51250000       0.00100000      25.51250000  r1
  1 5546      27.46250000       0.00100000      25.46250000  r1
  1 5555      27.43750000       0.00100000      25.43750000  r1
  1 5254      27.51250000       0.00100000      25.51250000  r1
  1 5544      27.48750000       0.00100000      25.48750000  r1
  1 5549      27.46250000       0.00100000      25.46250000  r1
  1 5547      27.48750000       0.00100000      25.48750000  r1
  1 1649      32.97422037       0.00100000      30.97422037  r2
  1 1651      32.94760915       0.00100000      30.94760915  r2
  1 1650      32.92266112       0.00100000      30.92266112  r2
  1 1656      32.89604990       0.00100000      30.89604990  r2
  1 1653      32.87110187       0.00100000      30.87110187  r2
  1 11667      25.07733888       0.00100000      23.07733888  r2
  1 1655      32.84449064       0.00100000      30.84449064  r2
  1 11661      25.10395010       0.00100000      23.10395010  r2
  1 1654      32.81954262       0.00100000      30.81954262  r2
  1 11672      25.12889813       0.00100000      23.12889813  r2
  1 1857      32.79293139       0.00100000      30.79293139  r2
  1 11670      25.15550936       0.00100000      23.15550936  r2
  1 1846      32.76798337       0.00100000      30.76798337  r2
  1 11671      25.18045738       0.00100000      23.18045738  r2
  1 1848      32.74137214       0.00100000      30.74137214  r2
  1 11480      25.20706861       0.00100000      23.20706861  r2
  1 1847      32.71642412       0.00100000      30.71642412  r2
  1 11483      25.23201663       0.00100000      23.23201663  r2
  1 1853      32.68981289       0.00100000      30.68981289  r2
  1 11481      25.25862786       0.00100000      23.25862786  r2
  1 1850      32.66486486       0.00100000      30.66486486  r2
  1 11482      25.28357588       0.00100000      23.28357588  r2
  1 1852      32.63825364       0.00100000      30.63825364  r2
  1 11476      25.31018711       0.00100000      23.31018711  r2
  1 1851      32.61330561       0.00100000      30.61330561  r2
  1 11487      25.33513514       0.00100000      23.33513514  r2
  1 2069      32.58669439       0.00100000      30.58669439  r2
  1 11485      25.36174636       0.00100000      23.36174636  r2
  1 2058      32.56174636       0.00100000      30.56174636  r2
  1 11486      25.38669439       0.00100000      23.38669439  r2
  1 2060      32.53513514       0.00100000      30.53513514  r2
  1 11241      25.41330561       0.00100000      23.41330561  r2
  1 2059      32.51018711       0.00100000      30.51018711  r2
  1 11244      25.43825364       0.00100000      23.43825364  r2
  1 2065      32.48357588       0.00100000      30.48357588  r2
  1 11242      25.46486486       0.00100000      23.46486486  r2
  1 2062      32.45862786       0.00100000      30.45862786  r2
  1 11243      25.48981289       0.00100000      23.48981289  r2
  1 2064      32.43201663       0.00100000      30.43201663  r2
  1 11237      25.51642412       0.00100000      23.51642412  r2
  1 2063      32.40706861       0.00100000      30.40706861  r2
  1 11248      25.54137214       0.00100000      23.54137214  r2
  1 2290      32.38045738       0.00100000      30.38045738  r2
  1 11246      25.56798337       0.00100000      23.56798337  r2
  1 2279      32.35550936       0.00100000      30.35550936  r2
  1 11247      25.59293139       0.00100000      23.59293139  r2
  1 2281      32.32889813       0.00100000      30.32889813  r2
  1 10978      25.61954262       0.00100000      23.61954262  r2
  1 2280      32.30395010       0.00100000      30.30395010  r2
  1 10981      25.64449064       0.00100000      23.64449064  r2
  1 2286      32.27733888       0.00100000      30.27733888  r2
  1 10979      25.67110187       0.00100000      23.67110187  r2
  1 2283      32.25239085       0.00100000      30.25239085  r2
  1 10980      25.69604990       0.00100000      23.69604990  r2
  1 2285      32.22577963       0.00100000      30.22577963  r2
  1 10974      25.72266112       0.00100000      23.72266112  r2
  1 10985      25.74760915       0.00100000      23.74760915  r2
  1 2520      32.17422037       0.00100000      30.17422037  r2
  1 10983      25.77422037       0.00100000      23.77422037  r2
  1 2522      32.14760915       0.00100000      30.14760915  r2
  1 2511      32.12266112       0.00100000      30.12266112  r2
  1 10706      25.82577963       0.00100000      23.82577963  r2
  1 2517      32.09604990       0.00100000      30.09604990  r2
  1 10704      25.85239085       0.00100000      23.85239085  r2