# File generated by Flopy version 3.3.5 on 01/17/2022 at 19:09:01.
BEGIN options
  READASARRAYS
END options

BEGIN period  1
  recharge
    CONSTANT  9.51293760E-09
END period  1

