# File generated by Flopy version 3.3.5 on 01/27/2022 at 11:39:43.
BEGIN options
END options

BEGIN packages
  DISV6  ./syn_model.disv  disv
  IC6  ./syn_model.ic  ic
  NPF6  ./syn_model.npf  npf
  CHD6  ./syn_model.chd  chd_0
  DRN6  ./syn_model.drn  drn_0
  RIV6  ./syn_model.riv  riv_0
  WEL6  ./syn_model.wel  wel_0
  RCH6  ./syn_model.rcha  rcha_0
  OC6  ./syn_model.oc  oc
END packages

