<<<<<<< HEAD
# File generated by Flopy version 3.3.4 on 01/28/2022 at 18:16:17.
||||||| 1a00768
# File generated by Flopy version 3.3.5 on 01/28/2022 at 12:41:43.
=======
# File generated by Flopy version 3.3.5 on 01/28/2022 at 16:19:02.
>>>>>>> ff83e7fc377772244b48b63e26fb4aea0344e57c
BEGIN options
  BOUNDNAMES
  SAVE_FLOWS
END options

BEGIN dimensions
  MAXBOUND  65
END dimensions

BEGIN period  1
  1 3510      26.00000000       0.00500000  d1
  1 5913      26.00000000       0.00500000  d1
  1 3516      26.00000000       0.00500000  d1
  1 5911      26.00000000       0.00500000  d1
  1 5916      26.00000000       0.00500000  d1
  1 3519      26.00000000       0.00500000  d1
  1 3518      26.00000000       0.00500000  d1
  1 5618      26.00000000       0.00500000  d1
  1 5914      26.00000000       0.00500000  d1
  1 3521      26.00000000       0.00500000  d1
  1 3808      26.00000000       0.00500000  d1
  1 5616      26.00000000       0.00500000  d1
  1 5621      26.00000000       0.00500000  d1
  1 3811      26.00000000       0.00500000  d1
  1 3810      26.00000000       0.00500000  d1
  1 5610      26.00000000       0.00500000  d1
  1 5619      26.00000000       0.00500000  d1
  1 3813      26.00000000       0.00500000  d1
  1 3816      26.00000000       0.00500000  d1
  1 5608      26.00000000       0.00500000  d1
  1 5613      26.00000000       0.00500000  d1
  1 3819      26.00000000       0.00500000  d1
  1 3818      26.00000000       0.00500000  d1
  1 5315      26.00000000       0.00500000  d1
  1 5611      26.00000000       0.00500000  d1
  1 3821      26.00000000       0.00500000  d1
  1 4108      26.00000000       0.00500000  d1
  1 5313      26.00000000       0.00500000  d1
  1 5318      26.00000000       0.00500000  d1
  1 4111      26.00000000       0.00500000  d1
  1 4110      26.00000000       0.00500000  d1
  1 5307      26.00000000       0.00500000  d1
  1 5316      26.00000000       0.00500000  d1
  1 4113      26.00000000       0.00500000  d1
  1 4116      26.00000000       0.00500000  d1
  1 5305      26.00000000       0.00500000  d1
  1 5310      26.00000000       0.00500000  d1
  1 4119      26.00000000       0.00500000  d1
  1 4118      26.00000000       0.00500000  d1
  1 5012      26.00000000       0.00500000  d1
  1 5308      26.00000000       0.00500000  d1
  1 4121      26.00000000       0.00500000  d1
  1 4408      26.00000000       0.00500000  d1
  1 5010      26.00000000       0.00500000  d1
  1 5015      26.00000000       0.00500000  d1
  1 4411      26.00000000       0.00500000  d1
  1 4410      26.00000000       0.00500000  d1
  1 5004      26.00000000       0.00500000  d1
  1 5013      26.00000000       0.00500000  d1
  1 4413      26.00000000       0.00500000  d1
  1 4416      26.00000000       0.00500000  d1
  1 5002      26.00000000       0.00500000  d1
  1 5007      26.00000000       0.00500000  d1
  1 4419      26.00000000       0.00500000  d1
  1 4418      26.00000000       0.00500000  d1
  1 4715      26.00000000       0.00500000  d1
  1 5005      26.00000000       0.00500000  d1
  1 4421      26.00000000       0.00500000  d1
  1 4705      26.00000000       0.00500000  d1
  1 4713      26.00000000       0.00500000  d1
  1 4718      26.00000000       0.00500000  d1
  1 4708      26.00000000       0.00500000  d1
  1 4707      26.00000000       0.00500000  d1
  1 4716      26.00000000       0.00500000  d1
  1 4710      26.00000000       0.00500000  d1
END period  1

