# File generated by Flopy version 3.3.5 on 01/17/2022 at 19:09:01.
BEGIN griddata
  strt
    CONSTANT      30.00000000
END griddata

