# File generated by Flopy version 3.3.5 on 01/17/2022 at 19:09:01.
BEGIN options
  BOUNDNAMES
  SAVE_FLOWS
END options

BEGIN dimensions
  MAXBOUND  2
END dimensions

BEGIN period  1
  1 5352      -0.03055556  w1
  1 8077      -0.02222222  w2
END period  1

