# File generated by Flopy version 3.3.4 on 01/28/2022 at 18:16:17.
BEGIN options
  BUDGET  FILEOUT  syn_model.cbc
  HEAD  FILEOUT  syn_model.hds
END options

BEGIN period  1
  SAVE  HEAD  LAST
  SAVE  BUDGET  LAST
  PRINT  HEAD  LAST
END period  1

