# File generated by Flopy version 3.3.4 on 01/28/2022 at 18:16:15.
BEGIN options
END options

