# File generated by Flopy version 3.3.5 on 01/17/2022 at 19:09:00.
BEGIN options
END options

