# File generated by Flopy version 3.3.5 on 01/17/2022 at 19:09:01.
BEGIN options
  BOUNDNAMES
  SAVE_FLOWS
END options

BEGIN dimensions
  MAXBOUND  80
END dimensions

BEGIN period  1
  1 10567      20.00000000  chd
  1 10662      20.00000000  chd
  1 10568      20.00000000  chd
  1 10661      20.00000000  chd
  1 10569      20.00000000  chd
  1 10660      20.00000000  chd
  1 10570      20.00000000  chd
  1 10659      20.00000000  chd
  1 10571      20.00000000  chd
  1 10658      20.00000000  chd
  1 10572      20.00000000  chd
  1 10657      20.00000000  chd
  1 10573      20.00000000  chd
  1 10656      20.00000000  chd
  1 10574      20.00000000  chd
  1 10655      20.00000000  chd
  1 10575      20.00000000  chd
  1 10654      20.00000000  chd
  1 10576      20.00000000  chd
  1 10653      20.00000000  chd
  1 10577      20.00000000  chd
  1 10652      20.00000000  chd
  1 10578      20.00000000  chd
  1 10651      20.00000000  chd
  1 10579      20.00000000  chd
  1 10650      20.00000000  chd
  1 10580      20.00000000  chd
  1 10649      20.00000000  chd
  1 10581      20.00000000  chd
  1 10648      20.00000000  chd
  1 10582      20.00000000  chd
  1 10647      20.00000000  chd
  1 10583      20.00000000  chd
  1 10646      20.00000000  chd
  1 10584      20.00000000  chd
  1 10645      20.00000000  chd
  1 10585      20.00000000  chd
  1 10644      20.00000000  chd
  1 10586      20.00000000  chd
  1 10643      20.00000000  chd
  1 10587      20.00000000  chd
  1 10642      20.00000000  chd
  1 10588      20.00000000  chd
  1 10641      20.00000000  chd
  1 10589      20.00000000  chd
  1 10640      20.00000000  chd
  1 10590      20.00000000  chd
  1 10639      20.00000000  chd
  1 10591      20.00000000  chd
  1 10638      20.00000000  chd
  1 10592      20.00000000  chd
  1 10637      20.00000000  chd
  1 10593      20.00000000  chd
  1 10636      20.00000000  chd
  1 10594      20.00000000  chd
  1 10635      20.00000000  chd
  1 10595      20.00000000  chd
  1 10634      20.00000000  chd
  1 10596      20.00000000  chd
  1 10633      20.00000000  chd
  1 10597      20.00000000  chd
  1 10632      20.00000000  chd
  1 10598      20.00000000  chd
  1 10631      20.00000000  chd
  1 10599      20.00000000  chd
  1 10630      20.00000000  chd
  1 10600      20.00000000  chd
  1 10629      20.00000000  chd
  1 10601      20.00000000  chd
  1 10628      20.00000000  chd
  1 10602      20.00000000  chd
  1 10627      20.00000000  chd
  1 10605      20.00000000  chd
  1 10626      20.00000000  chd
  1 10606      20.00000000  chd
  1 10625      20.00000000  chd
  1 10617      20.00000000  chd
  1 10622      20.00000000  chd
  1 10618      20.00000000  chd
  1 10621      20.00000000  chd
END period  1

