# File generated by Flopy version 3.3.5 on 01/27/2022 at 22:13:39.
BEGIN options
END options

