# File generated by Flopy version 3.3.4 on 01/28/2022 at 18:16:17.
BEGIN options
  BOUNDNAMES
  SAVE_FLOWS
END options

BEGIN dimensions
  MAXBOUND  88
END dimensions

BEGIN period  1
  1 18826      20.00000000  chd
  1 18963      20.00000000  chd
  1 18827      20.00000000  chd
  1 18962      20.00000000  chd
  1 18828      20.00000000  chd
  1 18961      20.00000000  chd
  1 18829      20.00000000  chd
  1 18960      20.00000000  chd
  1 18830      20.00000000  chd
  1 18959      20.00000000  chd
  1 18831      20.00000000  chd
  1 18958      20.00000000  chd
  1 18832      20.00000000  chd
  1 18957      20.00000000  chd
  1 18833      20.00000000  chd
  1 18956      20.00000000  chd
  1 18834      20.00000000  chd
  1 18955      20.00000000  chd
  1 18835      20.00000000  chd
  1 18954      20.00000000  chd
  1 18836      20.00000000  chd
  1 18953      20.00000000  chd
  1 18837      20.00000000  chd
  1 18952      20.00000000  chd
  1 18838      20.00000000  chd
  1 18951      20.00000000  chd
  1 18839      20.00000000  chd
  1 18950      20.00000000  chd
  1 18840      20.00000000  chd
  1 18949      20.00000000  chd
  1 18841      20.00000000  chd
  1 18948      20.00000000  chd
  1 18842      20.00000000  chd
  1 18947      20.00000000  chd
  1 18843      20.00000000  chd
  1 18946      20.00000000  chd
  1 18844      20.00000000  chd
  1 18945      20.00000000  chd
  1 18845      20.00000000  chd
  1 18944      20.00000000  chd
  1 18846      20.00000000  chd
  1 18943      20.00000000  chd
  1 18847      20.00000000  chd
  1 18942      20.00000000  chd
  1 18848      20.00000000  chd
  1 18941      20.00000000  chd
  1 18849      20.00000000  chd
  1 18940      20.00000000  chd
  1 18850      20.00000000  chd
  1 18939      20.00000000  chd
  1 18851      20.00000000  chd
  1 18938      20.00000000  chd
  1 18852      20.00000000  chd
  1 18937      20.00000000  chd
  1 18853      20.00000000  chd
  1 18936      20.00000000  chd
  1 18854      20.00000000  chd
  1 18935      20.00000000  chd
  1 18855      20.00000000  chd
  1 18934      20.00000000  chd
  1 18856      20.00000000  chd
  1 18933      20.00000000  chd
  1 18857      20.00000000  chd
  1 18932      20.00000000  chd
  1 18858      20.00000000  chd
  1 18931      20.00000000  chd
  1 18859      20.00000000  chd
  1 18930      20.00000000  chd
  1 18860      20.00000000  chd
  1 18929      20.00000000  chd
  1 18866      20.00000000  chd
  1 18928      20.00000000  chd
  1 18869      20.00000000  chd
  1 18927      20.00000000  chd
  1 18870      20.00000000  chd
  1 18926      20.00000000  chd
  1 18881      20.00000000  chd
  1 18918      20.00000000  chd
  1 18882      20.00000000  chd
  1 18917      20.00000000  chd
  1 18885      20.00000000  chd
  1 18914      20.00000000  chd
  1 18886      20.00000000  chd
  1 18913      20.00000000  chd
  1 18897      20.00000000  chd
  1 18902      20.00000000  chd
  1 18898      20.00000000  chd
  1 18901      20.00000000  chd
END period  1

