# File generated by Flopy version 3.3.4 on 01/28/2022 at 18:16:15.
BEGIN options
END options

BEGIN packages
  DISV6  syn_model.disv  disv
  IC6  syn_model.ic  ic
  NPF6  syn_model.npf  npf
  GHB6  syn_model.ghb  ghb_0
  CHD6  syn_model.chd  chd_0
  DRN6  syn_model.drn  drn_0
  RIV6  syn_model.riv  riv_0
  WEL6  syn_model.wel  wel_0
  OC6  syn_model.oc  oc
END packages

