# File generated by Flopy version 3.3.4 on 01/28/2022 at 18:16:17.
BEGIN options
  BOUNDNAMES
  SAVE_FLOWS
END options

BEGIN dimensions
  MAXBOUND  88
END dimensions

BEGIN period  1
  1 138      30.00000000       0.00100000  ghb
  1 1      30.00000000       0.00100000  ghb
  1 137      30.00000000       0.00100000  ghb
  1 2      30.00000000       0.00100000  ghb
  1 136      30.00000000       0.00100000  ghb
  1 3      30.00000000       0.00100000  ghb
  1 135      30.00000000       0.00100000  ghb
  1 4      30.00000000       0.00100000  ghb
  1 134      30.00000000       0.00100000  ghb
  1 5      30.00000000       0.00100000  ghb
  1 133      30.00000000       0.00100000  ghb
  1 6      30.00000000       0.00100000  ghb
  1 132      30.00000000       0.00100000  ghb
  1 7      30.00000000       0.00100000  ghb
  1 131      30.00000000       0.00100000  ghb
  1 8      30.00000000       0.00100000  ghb
  1 130      30.00000000       0.00100000  ghb
  1 9      30.00000000       0.00100000  ghb
  1 129      30.00000000       0.00100000  ghb
  1 10      30.00000000       0.00100000  ghb
  1 128      30.00000000       0.00100000  ghb
  1 11      30.00000000       0.00100000  ghb
  1 127      30.00000000       0.00100000  ghb
  1 12      30.00000000       0.00100000  ghb
  1 126      30.00000000       0.00100000  ghb
  1 13      30.00000000       0.00100000  ghb
  1 125      30.00000000       0.00100000  ghb
  1 14      30.00000000       0.00100000  ghb
  1 124      30.00000000       0.00100000  ghb
  1 15      30.00000000       0.00100000  ghb
  1 123      30.00000000       0.00100000  ghb
  1 16      30.00000000       0.00100000  ghb
  1 122      30.00000000       0.00100000  ghb
  1 17      30.00000000       0.00100000  ghb
  1 121      30.00000000       0.00100000  ghb
  1 18      30.00000000       0.00100000  ghb
  1 120      30.00000000       0.00100000  ghb
  1 19      30.00000000       0.00100000  ghb
  1 119      30.00000000       0.00100000  ghb
  1 20      30.00000000       0.00100000  ghb
  1 118      30.00000000       0.00100000  ghb
  1 21      30.00000000       0.00100000  ghb
  1 117      30.00000000       0.00100000  ghb
  1 22      30.00000000       0.00100000  ghb
  1 116      30.00000000       0.00100000  ghb
  1 23      30.00000000       0.00100000  ghb
  1 115      30.00000000       0.00100000  ghb
  1 24      30.00000000       0.00100000  ghb
  1 114      30.00000000       0.00100000  ghb
  1 25      30.00000000       0.00100000  ghb
  1 113      30.00000000       0.00100000  ghb
  1 26      30.00000000       0.00100000  ghb
  1 112      30.00000000       0.00100000  ghb
  1 27      30.00000000       0.00100000  ghb
  1 111      30.00000000       0.00100000  ghb
  1 28      30.00000000       0.00100000  ghb
  1 110      30.00000000       0.00100000  ghb
  1 29      30.00000000       0.00100000  ghb
  1 109      30.00000000       0.00100000  ghb
  1 30      30.00000000       0.00100000  ghb
  1 108      30.00000000       0.00100000  ghb
  1 31      30.00000000       0.00100000  ghb
  1 107      30.00000000       0.00100000  ghb
  1 32      30.00000000       0.00100000  ghb
  1 106      30.00000000       0.00100000  ghb
  1 33      30.00000000       0.00100000  ghb
  1 105      30.00000000       0.00100000  ghb
  1 34      30.00000000       0.00100000  ghb
  1 104      30.00000000       0.00100000  ghb
  1 35      30.00000000       0.00100000  ghb
  1 98      30.00000000       0.00100000  ghb
  1 36      30.00000000       0.00100000  ghb
  1 95      30.00000000       0.00100000  ghb
  1 37      30.00000000       0.00100000  ghb
  1 94      30.00000000       0.00100000  ghb
  1 38      30.00000000       0.00100000  ghb
  1 83      30.00000000       0.00100000  ghb
  1 46      30.00000000       0.00100000  ghb
  1 82      30.00000000       0.00100000  ghb
  1 47      30.00000000       0.00100000  ghb
  1 79      30.00000000       0.00100000  ghb
  1 50      30.00000000       0.00100000  ghb
  1 78      30.00000000       0.00100000  ghb
  1 51      30.00000000       0.00100000  ghb
  1 67      30.00000000       0.00100000  ghb
  1 62      30.00000000       0.00100000  ghb
  1 66      30.00000000       0.00100000  ghb
  1 63      30.00000000       0.00100000  ghb
END period  1

