# File generated by Flopy version 3.3.5 on 01/27/2022 at 22:13:41.
BEGIN options
  BOUNDNAMES
  SAVE_FLOWS
END options

BEGIN dimensions
  MAXBOUND  2
END dimensions

BEGIN period  1
  1 6063      -0.03055556  w1
  1 9496      -0.02222222  w2
END period  1

