<<<<<<< HEAD
# File generated by Flopy version 3.3.4 on 01/28/2022 at 18:16:17.
||||||| 1a00768
# File generated by Flopy version 3.3.5 on 01/28/2022 at 12:41:43.
=======
# File generated by Flopy version 3.3.5 on 01/28/2022 at 16:19:02.
>>>>>>> ff83e7fc377772244b48b63e26fb4aea0344e57c
BEGIN options
  BUDGET  FILEOUT  syn_model.cbc
  HEAD  FILEOUT  syn_model.hds
END options

BEGIN period  1
  SAVE  HEAD  LAST
  SAVE  BUDGET  LAST
  PRINT  HEAD  LAST
END period  1

