# File generated by Flopy version 3.3.5 on 01/28/2022 at 16:19:02.
BEGIN griddata
  strt
    CONSTANT      30.00000000
END griddata

