# File generated by Flopy version 3.3.5 on 01/27/2022 at 11:39:44.
BEGIN options
  SAVE_FLOWS
  SAVE_SPECIFIC_DISCHARGE
END options

BEGIN griddata
  icelltype
    CONSTANT  0
  k
    INTERNAL  FACTOR  1.0
    4.45546398E-05  4.81986155E-05  7.29748021E-05  6.64124155E-05  6.19952781E-05  5.45937391E-05  3.55924628E-05  3.28472011E-05  5.10217759E-05  3.86972135E-05  4.18261876E-05  7.05546080E-05  3.52813583E-05  3.11604118E-05  4.49787949E-05  5.22390924E-05  4.48348802E-05  5.93658378E-05  4.77695982E-05  3.42608285E-05
    4.16951302E-05  3.67411709E-05  4.39006513E-05  2.34686896E-05  3.01073694E-05  3.48907993E-05  3.64207340E-05  2.58690466E-05  2.27522984E-05  1.74828499E-05  1.70165723E-05  1.28283862E-05  1.57852939E-05  2.31761729E-05  3.62049261E-05  5.41533901E-05  7.62880547E-05  6.83254930E-05  6.01299916E-05  7.74180389E-05
    6.44547311E-05  6.65710036E-05  5.97630780E-05  6.80990868E-05  6.79415881E-05  7.63088516E-05  7.37135259E-05  8.15840831E-05  6.57157911E-05  5.52056553E-05  6.67291002E-05  5.80052439E-05  5.64030413E-05  8.72154124E-05  6.58076688E-05  7.61028216E-05  1.31090963E-04  1.24080369E-04  1.07793835E-04  1.12653363E-04
    7.11817821E-05  6.84017729E-05  8.11593017E-05  1.13685237E-04  8.12754091E-05  1.34711798E-04  9.24220052E-05  6.16756056E-05  6.52079612E-05  8.57114941E-05  6.26486437E-05  5.47904837E-05  4.57466045E-05  3.29010547E-05  3.83378252E-05  7.50342287E-05  4.77707525E-05  4.99161991E-05  6.32951296E-05  5.65473047E-05
    4.19203133E-05  7.91729446E-05  6.90216300E-05  1.40196553E-04  1.10970718E-04  9.59976531E-05  8.38890962E-05  6.28383305E-05  4.73976163E-05  7.45448371E-05  6.01226073E-05  4.17932641E-05  5.43116680E-05  5.38431833E-05  2.96272749E-05  5.38651659E-05  9.04394307E-05  7.75190958E-05  6.86447831E-05  9.75482889E-05
    6.42095707E-05  4.65253435E-05  5.65193232E-05  5.96500777E-05  1.06378744E-04  1.02486259E-04  8.48583797E-05  3.83260525E-05  4.56567812E-05  3.63810947E-05  3.59184163E-05  5.91651051E-05  5.91053210E-05  4.16861277E-05  3.69342772E-05  4.97011769E-05  4.33915220E-05  3.31220034E-05  4.70320364E-05  4.69609066E-05
    4.24056753E-05  5.66164914E-05  4.00283665E-05  2.30051268E-05  2.06911341E-05  1.75922475E-05  2.21178788E-05  2.63431395E-05  3.33992527E-05  2.81433203E-05  2.56004034E-05  3.70849993E-05  4.90899370E-05  5.93518195E-05  5.74683351E-05  7.58782444E-05  6.25917681E-05  7.60545722E-05  8.32434168E-05  7.52201666E-05
    7.28879532E-05  8.05397062E-05  8.37335444E-05  8.59361027E-05  7.61978503E-05  9.71916395E-05  8.88991014E-05  8.24467533E-05  1.02844872E-04  8.33568597E-05  1.02672032E-04  6.89094363E-05  1.05117692E-04  8.34230621E-05  7.40093793E-05  6.63158164E-05  7.57254758E-05  5.85192736E-05  4.77792661E-05  5.99686952E-05
    8.16615793E-05  9.72254559E-05  6.48281996E-05  1.28619628E-04  6.76953517E-05  5.10958730E-05  4.70435544E-05  3.70741497E-05  2.76581909E-05  6.26724774E-05  4.92224945E-05  5.38040420E-05  7.64539183E-05  5.06722386E-05  3.63491078E-05  5.79199017E-05  5.29664762E-05  6.72312234E-05  7.33962652E-05  8.63469322E-05
    8.98306399E-05  1.15493282E-04  9.55936052E-05  1.23794922E-04  8.53572560E-05  1.47934901E-04  1.45040171E-04  9.79833212E-05  6.41096768E-05  4.72822316E-05  4.61819125E-05  4.96673393E-05  1.08470622E-04  8.75838217E-05  9.55805004E-05  1.02964509E-04  6.88074891E-05  5.70109237E-05  3.98298260E-05  6.38654436E-05
    1.27133715E-04  1.71872087E-04  1.06230941E-04  7.86000542E-05  3.36526798E-05  2.96009016E-05  6.92558662E-05  1.20885514E-04  8.42390073E-05  3.99962603E-05  2.43504520E-05  2.82368124E-05  5.94174703E-05  6.30646507E-05  5.54178161E-05  8.42890264E-05  6.64153294E-05  4.52816279E-05  2.98169522E-05  4.01827062E-05
    2.31342357E-05  2.53972824E-05  2.83185176E-05  2.02945830E-05  3.34290622E-05  3.73387478E-05  3.48241415E-05  4.52119620E-05  5.52116505E-05  6.13460245E-05  6.64758097E-05  5.43221006E-05  8.52937203E-05  8.76958572E-05  7.38790514E-05  5.96026151E-05  7.12959240E-05  6.83364633E-05  7.59959684E-05  6.63071761E-05
    5.97297313E-05  6.21983276E-05  4.77798623E-05  4.80963056E-05  6.19761090E-05  7.18756157E-05  5.67158467E-05  9.04110611E-05  7.27583377E-05  5.67608652E-05  7.86497645E-05  8.03231380E-05  6.78513855E-05  5.27700483E-05  7.22212561E-05  5.49770088E-05  6.26857586E-05  6.22277213E-05  5.10604427E-05  6.42406474E-05
    1.28033252E-04  5.66913661E-05  3.56118808E-05  2.88483665E-05  3.61438082E-05  5.05563889E-05  5.90647101E-05  5.11224412E-05  3.11816057E-05  3.58277084E-05  4.81247089E-05  5.05163887E-05  6.23730427E-05  6.74859541E-05  7.85033325E-05  5.18691799E-05  8.44810164E-05  1.05416126E-04  1.27397983E-04  1.70543915E-04
    1.46454806E-04  1.65487192E-04  1.31522612E-04  1.31796055E-04  7.62052530E-05  5.88776300E-05  4.71925401E-05  5.30856877E-05  7.59294144E-05  6.80671146E-05  7.97432146E-05  5.66710519E-05  6.04043748E-05  5.23443584E-05  7.79494028E-05  1.00877023E-04  1.09364864E-04  1.35668707E-04  9.80579901E-05  6.06322518E-05
    4.75415441E-05  5.15881835E-05  6.06740041E-05  8.45027931E-05  6.64037767E-05  4.17330386E-05  2.68877111E-05  4.68107052E-05  6.85618448E-05  7.91502510E-05  1.14772615E-04  8.99531175E-05  6.16540258E-05  6.51866214E-05  3.61281682E-05  2.67120154E-05  1.86518280E-05  2.04317408E-05  1.92171003E-05  3.69337255E-05
    3.01820649E-05  5.17448308E-05  4.25972301E-05  6.19576765E-05  5.64803410E-05  5.74268868E-05  5.21887162E-05  7.68598866E-05  5.01564008E-05  5.75504650E-05  6.46281835E-05  7.77994167E-05  5.31605695E-05  7.49806264E-05  6.62052891E-05  7.20434095E-05  6.24094119E-05  8.22565957E-05  7.05879754E-05  7.29244745E-05
    6.88305355E-05  8.87026353E-05  8.20185862E-05  9.62345518E-05  7.13023979E-05  7.01359056E-05  6.67846446E-05  5.16897769E-05  4.30969874E-05  3.44897098E-05  6.05858130E-05  7.42244879E-05  6.42587236E-05  7.05674111E-05  6.46131996E-05  4.75128335E-05  6.71100782E-05  5.40049581E-05  6.77387240E-05  3.84120417E-05
    3.94552794E-05  3.26048562E-05  2.87463468E-05  2.31979582E-05  3.06385699E-05  3.10048448E-05  4.36526758E-05  5.72937042E-05  5.24919300E-05  3.89620808E-05  4.94898621E-05  6.71276558E-05  9.61900289E-05  9.69459544E-05  1.56038974E-04  1.22118262E-04  1.38423458E-04  1.83861299E-04  1.71212782E-04  7.19417930E-05
    1.04488559E-04  6.78599925E-05  7.48340213E-05  5.94639727E-05  1.33336966E-04  1.09808972E-04  9.15048089E-05  1.00371154E-04  7.17719158E-05  9.12900986E-05  1.13261839E-04  1.64215770E-04  1.28729324E-04  1.18942428E-04  1.03098295E-04  4.90376452E-05  4.63476079E-05  7.18457288E-05  9.12890557E-05  5.89413331E-05
    4.68262680E-05  5.08214172E-05  2.59738665E-05  4.18864124E-05  4.83178503E-05  6.14617621E-05  6.87814705E-05  7.65063807E-05  5.94612285E-05  3.87843684E-05  3.65489358E-05  3.34228221E-05  3.11570074E-05  2.37408613E-05  2.35857006E-05  3.02369117E-05  3.38645330E-05  5.14202691E-05  6.67206360E-05  4.91232387E-05
    5.93667862E-05  8.19987730E-05  5.73402576E-05  5.20279879E-05  6.00487091E-05  8.15039046E-05  7.03845789E-05  6.35276188E-05  8.26800405E-05  6.91619094E-05  8.27281830E-05  5.36776536E-05  5.18225541E-05  6.81636084E-05  6.73602172E-05  5.93676979E-05  7.41599484E-05  5.35488395E-05  6.01558416E-05  4.15334265E-05
    5.53399574E-05  3.23531217E-05  4.16889026E-05  4.83549494E-05  3.60357679E-05  4.95357729E-05  7.77914707E-05  6.68131014E-05  8.34264255E-05  4.20453671E-05  4.60782353E-05  7.10468712E-05  5.18638423E-05  3.59661704E-05  4.58374433E-05  3.73798929E-05  4.70689198E-05  4.40973611E-05  4.37765700E-05  2.68595503E-05
    4.13616309E-05  2.73618107E-05  5.05771099E-05  5.59034735E-05  6.80044274E-05  5.05060426E-05  5.08620680E-05  4.98418962E-05  8.37337350E-05  1.11533555E-04  1.39846492E-04  1.71587115E-04  1.38510254E-04  8.12743040E-05  6.47234232E-05  6.72638290E-05  5.20747552E-05  3.52433817E-05  7.12888142E-05  4.90008329E-05
    8.69820582E-05  1.02064181E-04  1.31391524E-04  1.50061721E-04  1.47831415E-04  1.35695935E-04  9.84252542E-05  1.17492024E-04  1.64820431E-04  1.28829932E-04  8.84786675E-05  1.09728317E-04  7.69401265E-05  4.01973077E-05  9.07358871E-05  6.34666109E-05  4.97557897E-05  6.28015127E-05  5.17772730E-05  3.48618024E-05
    3.92504546E-05  3.00699198E-05  3.14607970E-05  4.08939529E-05  4.76777980E-05  4.40946586E-05  2.81034289E-05  3.29743279E-05  3.29554175E-05  3.27451847E-05  2.13681855E-05  2.78166402E-05  4.32509477E-05  4.24112551E-05  8.09339576E-05  1.11987052E-04  8.28488082E-05  6.21418562E-05  7.22473282E-05  5.01058549E-05
    7.14251909E-05  5.44990341E-05  5.70304559E-05  4.24844276E-05  5.07452592E-05  3.92824211E-05  3.84748628E-05  4.06796915E-05  4.89163505E-05  4.72288469E-05  5.08560578E-05  4.10015197E-05  3.41892697E-05  3.25354327E-05  3.51550510E-05  4.48218827E-05  4.96335610E-05  6.05482151E-05  4.66813380E-05  6.05740498E-05
    4.25927156E-05  4.17809131E-05  1.20289638E-04  9.46064247E-05  6.88875117E-05  6.67277078E-05  5.70700449E-05  6.95544716E-05  8.18711230E-05  6.59743800E-05  4.50945073E-05  3.64093940E-05  3.30323325E-05  3.74365174E-05  3.35805284E-05  4.17333969E-05  3.56189177E-05  3.00932770E-05  4.43652640E-05  5.41246459E-05
    4.60654203E-05  6.21734002E-05  7.37695592E-05  8.10150559E-05  1.22702108E-04  6.15485382E-05  9.94059286E-05  8.98549393E-05  7.44171882E-05  6.73450287E-05  4.22704512E-05  3.29634230E-05  3.86750840E-05  3.37860679E-05  4.29668633E-05  7.28577972E-05  6.22985640E-05  8.03287052E-05  1.03444861E-04  2.02298794E-04
    2.30689442E-04  7.72393354E-05  1.09127788E-04  1.41586494E-04  1.38926263E-04  1.97662013E-04  1.82639070E-04  1.41286646E-04  1.18897579E-04  8.21278552E-05  4.06399253E-05  4.52032605E-05  5.45635614E-05  4.30596554E-05  5.62732559E-05  6.14640281E-05  3.34354780E-05  1.38645723E-05  2.01842357E-05  1.59983412E-05
    3.01433485E-05  4.35955305E-05  4.17454686E-05  2.36023339E-05  2.78754125E-05  1.75521086E-05  2.24874946E-05  3.58682697E-05  4.43452390E-05  5.09488746E-05  6.64294431E-05  6.03197750E-05  7.61868014E-05  6.18785879E-05  5.66111489E-05  7.89548454E-05  4.75808674E-05  4.49062909E-05  5.53249247E-05  5.11819590E-05
    4.35881782E-05  4.34079381E-05  4.30902061E-05  4.39731448E-05  5.10101792E-05  4.87764829E-05  5.79337483E-05  4.12946729E-05  3.95738273E-05  4.17294602E-05  5.14258790E-05  5.11952926E-05  4.37986555E-05  5.48717074E-05  4.83095614E-05  3.94417404E-05  6.29708179E-05  9.50468812E-05  7.65189307E-05  1.27986869E-04
    1.03864689E-04  9.68702968E-05  8.31959744E-05  1.25195563E-04  8.48072601E-05  6.34354543E-05  8.67273376E-05  4.62763465E-05  2.57376378E-05  4.02335231E-05  4.00121636E-05  2.77374235E-05  4.76258962E-05  5.23881275E-05  3.23319245E-05  6.10238378E-05  3.95887437E-05  5.41899959E-05  6.36896388E-05  8.64770616E-05
    1.02430544E-04  9.91952030E-05  6.07477871E-05  5.52771565E-05  5.25692044E-05  7.32485242E-05  7.73686551E-05  4.89274497E-05  2.87603678E-05  3.49576574E-05  3.96211123E-05  3.98590328E-05  6.49382030E-05  1.12018622E-04  1.59476577E-04  1.78236518E-04  2.04415831E-04  1.51307228E-04  1.35375381E-04  1.17211185E-04
    2.23323026E-04  1.69972712E-04  1.35044415E-04  1.48845325E-04  1.00593900E-04  4.92357832E-05  6.94010693E-05  3.59256554E-05  3.79065287E-05  5.06763115E-05  3.74659303E-05  3.13391224E-05  2.17335762E-05  1.29280023E-05  9.99367923E-06  1.54791122E-05  2.21472497E-05  3.07312419E-05  3.24183978E-05  2.13824903E-05
    3.13408503E-05  2.76616430E-05  5.09652354E-05  4.89052258E-05  4.72077999E-05  4.92763295E-05  4.59493047E-05  4.58498071E-05  6.16317609E-05  6.42520255E-05  8.48822643E-05  8.05718132E-05  5.68933463E-05  5.06165690E-05  6.55336002E-05  6.98324542E-05  5.76639809E-05  6.18111910E-05  6.16937019E-05  6.32770644E-05
    5.91156441E-05  6.75085205E-05  7.53007920E-05  6.76233354E-05  7.56907473E-05  5.95725366E-05  4.63636703E-05  4.95619000E-05  4.52130761E-05  5.60283812E-05  4.80860720E-05  7.08352071E-05  4.74551567E-05  6.14908840E-05  7.63882870E-05  1.27669530E-04  1.12528471E-04  1.43382598E-04  7.92251471E-05  8.21098408E-05
    9.04725402E-05  1.10528462E-04  4.56116053E-05  5.56708495E-05  3.27347780E-05  3.60828466E-05  4.57317676E-05  7.00880686E-05  4.53236503E-05  4.30997382E-05  4.61779306E-05  4.45413216E-05  5.71880165E-05  1.26327271E-04  9.26427576E-05  6.16186937E-05  5.95463302E-05  8.45184308E-05  4.91842291E-05  6.66135786E-05
    6.81038328E-05  5.99542257E-05  4.27310912E-05  3.82168479E-05  2.55409928E-05  3.27483466E-05  4.44639839E-05  3.58799056E-05  5.02116626E-05  7.12834912E-05  9.53142581E-05  1.49904192E-04  1.78073745E-04  1.42547136E-04  1.29689966E-04  1.37523808E-04  1.37122048E-04  3.27851630E-04  1.98391529E-04  1.48717167E-04
    1.12813185E-04  6.87435789E-05  6.12571436E-05  5.68960587E-05  5.56768026E-05  3.53127865E-05  2.68016790E-05  2.54621253E-05  2.57314958E-05  2.12847304E-05  2.73753645E-05  3.27042642E-05  2.27993293E-05  3.30216995E-05  2.49487322E-05  1.30672022E-05  2.67077523E-05  3.91326650E-05  4.31574218E-05  5.99066345E-05
    4.79270960E-05  4.42492551E-05  6.08145044E-05  4.78220474E-05  5.81902638E-05  6.53324216E-05  6.54237411E-05  8.79142302E-05  7.09049231E-05  6.65226957E-05  5.75586737E-05  7.00397576E-05  4.71455547E-05  4.76384303E-05  5.69104109E-05  6.56537141E-05  6.59431196E-05  7.63879382E-05  1.01114919E-04  7.50639333E-05
    8.66925279E-05  6.52968051E-05  7.71542543E-05  8.19106554E-05  5.05242940E-05  6.30263545E-05  7.69026146E-05  4.87660244E-05  4.73211712E-05  3.92213827E-05  4.35581892E-05  8.44995146E-05  1.35535730E-04  8.79734912E-05  7.86959462E-05  5.68273044E-05  7.20813675E-05  7.38492707E-05  7.68970192E-05  7.83647466E-05
    3.93834042E-05  4.32981052E-05  3.81747517E-05  4.81030376E-05  5.04749115E-05  3.90632182E-05  3.25659024E-05  6.55620012E-05  8.98199276E-05  9.73957682E-05  1.03724774E-04  1.12867901E-04  6.81290463E-05  7.75437329E-05  8.81487643E-05  7.57853869E-05  6.82115989E-05  7.29148790E-05  3.98631357E-05  3.40204751E-05
    2.83099346E-05  2.93315749E-05  2.39610677E-05  4.04972659E-05  4.62829026E-05  4.86385635E-05  5.81976388E-05  1.10569263E-04  1.64105798E-04  1.38776651E-04  1.94450285E-04  1.47083358E-04  1.27382926E-04  1.28423304E-04  1.20314895E-04  1.23525664E-04  9.70062009E-05  8.70460437E-05  5.79435976E-05  6.96662452E-05
    4.43823655E-05  4.48959344E-05  3.56689886E-05  3.73343352E-05  3.93503363E-05  3.48996908E-05  2.29362954E-05  3.26301183E-05  4.10580540E-05  3.22382115E-05  2.44455711E-05  2.26496417E-05  1.50929597E-05  2.98089765E-05  5.20791081E-05  7.26624673E-05  4.50592707E-05  8.29988723E-05  6.05291038E-05  4.89074145E-05
    5.40881517E-05  6.93124332E-05  4.59041389E-05  4.61639504E-05  8.92868805E-05  8.65284682E-05  6.68190583E-05  7.72699873E-05  8.80833195E-05  7.11458431E-05  9.94039501E-05  7.00234185E-05  6.99512384E-05  5.34136173E-05  6.53957516E-05  6.87757598E-05  8.67801524E-05  7.78348261E-05  7.58398008E-05  9.10978067E-05
    5.90464104E-05  5.01955850E-05  7.47856533E-05  5.35629355E-05  5.34146813E-05  4.84073727E-05  5.48851689E-05  9.82682374E-05  1.51743455E-04  1.20346166E-04  8.12610022E-05  5.65200948E-05  6.21244021E-05  7.21145005E-05  9.32369173E-05  9.49295216E-05  6.58009597E-05  2.86222862E-05  3.68932298E-05  6.42573769E-05
    7.71712665E-05  5.39711811E-05  5.60874777E-05  5.12951522E-05  5.15511217E-05  7.89826464E-05  8.01347039E-05  9.88017024E-05  1.09350324E-04  9.53378107E-05  1.05895538E-04  9.72497237E-05  9.49674419E-05  5.10159355E-05  6.01983854E-05  3.69891007E-05  3.29920430E-05  2.80057987E-05  2.29298503E-05  2.66464905E-05
    2.53676184E-05  1.98744858E-05  2.39613038E-05  1.69602818E-05  1.62543494E-05  1.86983063E-05  3.26695659E-05  6.21364621E-05  5.97970821E-05  1.01843380E-04  1.16299048E-04  1.58588487E-04  1.34128778E-04  1.14525388E-04  1.05330113E-04  6.86854166E-05  4.85935541E-05  5.52650581E-05  5.66679604E-05  5.83895947E-05
    5.65246206E-05  6.61057846E-05  4.28358266E-05  3.92635112E-05  3.12117625E-05  4.12008032E-05  4.32615162E-05  3.99247712E-05  3.08260880E-05  3.81336540E-05  3.58367426E-05  4.09536143E-05  2.31014985E-05  2.34350780E-05  3.05220089E-05  2.86604417E-05  3.83415192E-05  4.47395541E-05  5.14475898E-05  7.14645977E-05
    6.03815116E-05  8.27287498E-05  6.64105332E-05  4.93430746E-05  7.57446536E-05  6.74690758E-05  6.32466723E-05  7.10149331E-05  6.31262058E-05  8.14613362E-05  8.09565379E-05  8.36039625E-05  7.13813492E-05  8.03969088E-05  6.30164179E-05  7.37374638E-05  8.56689373E-05  1.16590717E-04  8.76160153E-05  7.58147084E-05
    6.52382908E-05  7.48724843E-05  6.52600947E-05  9.33381002E-05  7.46664456E-05  8.55023393E-05  7.23076528E-05  3.94347562E-05  1.03833725E-04  8.56126233E-05  6.84758064E-05  7.45554764E-05  6.68130351E-05  4.06450205E-05  7.94280213E-05  1.00210866E-04  1.18789407E-04  9.46330703E-05  9.15730454E-05  5.52256757E-05
    4.92380163E-05  5.91767288E-05  1.10421957E-04  5.49264024E-05  5.37189856E-05  4.51822799E-05  5.88463858E-05  8.25063984E-05  1.34604064E-04  1.22898162E-04  1.41660779E-04  1.21328903E-04  1.18023553E-04  1.16053042E-04  6.40301594E-05  5.13507255E-05  4.26510801E-05  2.35002102E-05  3.09241110E-05  3.35782537E-05
    2.32157829E-05  1.88544245E-05  2.41287494E-05  1.85379886E-05  1.47077354E-05  2.10946013E-05  2.21098539E-05  2.16679959E-05  2.79993066E-05  2.52989893E-05  2.67193972E-05  3.04323053E-05  3.55865718E-05  3.20644066E-05  2.58349498E-05  4.00667862E-05  3.84566647E-05  5.53175247E-05  4.42788065E-05  5.28320430E-05
    7.65793159E-05  9.26280380E-05  1.08637259E-04  1.26329347E-04  9.62634507E-05  6.94886627E-05  7.67048543E-05  6.52879269E-05  5.11707626E-05  4.43969192E-05  5.00534532E-05  4.58111064E-05  6.00816838E-05  8.04973060E-05  5.06403711E-05  4.41706391E-05  4.28357329E-05  4.55731779E-05  3.23378416E-05  2.81674331E-05
    3.83345786E-05  3.11894739E-05  3.55351895E-05  1.49206753E-05  1.76017803E-05  2.38182180E-05  2.42839294E-05  2.08582169E-05  2.57781406E-05  2.79514479E-05  3.67756708E-05  4.64682884E-05  6.89832450E-05  9.32219656E-05  1.23686873E-04  8.35872878E-05  1.24465544E-04  1.14818772E-04  1.17478734E-04  1.42659064E-04
    1.09379107E-04  7.90763725E-05  7.86330558E-05  9.15632839E-05  8.27853075E-05  1.40767704E-04  1.10358577E-04  1.06682329E-04  9.91763103E-05  1.07104344E-04  8.79020285E-05  8.96193561E-05  1.01660381E-04  7.34044751E-05  8.72342770E-05  8.14631076E-05  6.76357824E-05  7.87787692E-05  6.30194301E-05  6.68813523E-05
    8.48192844E-05  7.15323695E-05  4.93107508E-05  5.16846159E-05  4.94266237E-05  8.34576285E-05  6.96199833E-05  9.89736655E-05  8.18669717E-05  5.72077484E-05  8.52631633E-05  7.54505932E-05  4.47564957E-05  6.79911100E-05  7.75799733E-05  3.77803448E-05  4.39721764E-05  8.95958042E-05  6.54362861E-05  1.45899868E-04
    1.27318358E-04  1.43070237E-04  1.04816680E-04  9.53000903E-05  8.02454901E-05  8.19262258E-05  5.07182102E-05  5.73105178E-05  4.35526856E-05  3.20116937E-05  2.33878512E-05  3.15068028E-05  2.49315683E-05  3.46495203E-05  3.76076141E-05  3.16798021E-05  2.85492699E-05  3.13655568E-05  3.96145381E-05  3.07698928E-05
    2.70207192E-05  2.84341039E-05  3.52442644E-05  4.43754398E-05  4.76600165E-05  3.75417482E-05  4.81954147E-05  3.75594589E-05  4.13675512E-05  4.40835139E-05  4.41017385E-05  3.52705641E-05  4.20478054E-05  4.67829623E-05  6.26809350E-05  6.88791687E-05  8.57530155E-05  7.63805163E-05  5.39466613E-05  5.37995231E-05
    7.77879655E-05  6.70582386E-05  7.90536760E-05  6.31373989E-05  3.90359039E-05  4.39097728E-05  4.20278589E-05  3.66405226E-05  6.69209966E-05  7.89490195E-05  6.21941900E-05  9.28558798E-05  8.36683827E-05  4.54392634E-05  7.03472985E-05  4.19517907E-05  2.91379021E-05  2.40926200E-05  3.58874732E-05  2.68948341E-05
    3.72767248E-05  2.83093820E-05  1.94876952E-05  1.44173333E-05  2.35609050E-05  2.54322920E-05  3.04396674E-05  3.88571741E-05  3.01246538E-05  4.53266271E-05  9.16622728E-05  8.24384076E-05  5.71892081E-05  8.41198846E-05  1.06272664E-04  8.57687623E-05  8.81825034E-05  1.04020122E-04  1.08407185E-04  1.04553010E-04
    1.17786200E-04  1.22597898E-04  1.01143477E-04  8.42445050E-05  7.54635576E-05  1.03856627E-04  1.14292048E-04  1.40815587E-04  1.02015847E-04  1.32316548E-04  9.87641835E-05  1.61271676E-04  1.44780660E-04  1.69112673E-04  1.39059637E-04  8.55069274E-05  7.37323021E-05  8.19408706E-05  3.98259680E-05  4.96263859E-05
    5.45956661E-05  4.09946370E-05  5.53266948E-05  4.43714386E-05  3.62523348E-05  4.96211561E-05  6.74955183E-05  5.03155477E-05  6.67168328E-05  6.63292226E-05  3.00367601E-05  2.95412247E-05  3.77423148E-05  3.41619577E-05  5.55983427E-05  1.01268219E-04  7.97353880E-05  1.03810621E-04  1.21800329E-04  8.59099576E-05
    5.68249933E-05  6.81147478E-05  6.03680369E-05  7.58191686E-05  1.01728550E-04  6.03282436E-05  4.64294797E-05  2.78211329E-05  5.03339044E-05  5.64404284E-05  3.00250632E-05  2.34016986E-05  2.65981108E-05  2.70584186E-05  3.06756650E-05  4.22324478E-05  3.22455045E-05  4.69595720E-05  3.75557663E-05  2.93593881E-05
    2.98416307E-05  3.59513976E-05  3.40545442E-05  3.04606685E-05  4.28342569E-05  3.04999516E-05  4.06707565E-05  4.61738061E-05  3.49958591E-05  3.01359284E-05  7.03746253E-05  7.21410984E-05  8.16704174E-05  5.70383216E-05  4.75551410E-05  5.24709338E-05  4.53030948E-05  4.78037279E-05  4.80719812E-05  3.69344472E-05
    3.59579551E-05  5.34472423E-05  2.36220217E-05  3.99073906E-05  3.78921396E-05  4.94823104E-05  6.68228825E-05  8.10674016E-05  8.19691348E-05  8.02502225E-05  6.29789482E-05  4.72821581E-05  5.27696129E-05  8.27040894E-05  5.56162422E-05  3.87608992E-05  4.18709038E-05  5.02345765E-05  3.27789237E-05  4.18521352E-05
    2.85560377E-05  2.42367661E-05  2.35172892E-05  2.95418387E-05  2.39646459E-05  4.45998266E-05  4.92980820E-05  7.26794130E-05  7.60512730E-05  6.63122877E-05  9.56633459E-05  7.73163964E-05  9.01343709E-05  7.91039441E-05  9.69949781E-05  1.08361703E-04  9.41677725E-05  1.02582341E-04  1.03082911E-04  8.81118214E-05
    9.08417343E-05  1.25922626E-04  1.28226250E-04  1.06463498E-04  1.02704386E-04  9.99622277E-05  6.21397370E-05  1.18564051E-04  1.31338165E-04  9.01365728E-05  8.97401947E-05  7.38805779E-05  7.01885084E-05  6.61770822E-05  7.16600202E-05  4.01654219E-05  3.15199358E-05  2.11291782E-05  4.60133799E-05  3.66009187E-05
    3.71497104E-05  3.21229283E-05  4.76796250E-05  3.72573577E-05  7.38973489E-05  7.20436207E-05  5.80681024E-05  4.87651628E-05  2.59658648E-05  2.12562403E-05  4.80522311E-05  8.57494372E-05  1.21785487E-04  1.21492883E-04  7.44863142E-05  5.89274488E-05  6.70848817E-05  6.24822962E-05  7.84686891E-05  6.24249795E-05
    8.46831597E-05  6.98755803E-05  5.13861416E-05  4.93835102E-05  6.70625203E-05  7.34692549E-05  6.10796951E-05  5.74296397E-05  5.14577505E-05  5.44783328E-05  4.94399225E-05  6.76405953E-05  6.88673706E-05  5.21577204E-05  5.62338483E-05  5.63060244E-05  5.00359658E-05  7.25955759E-05  6.53327550E-05  4.13202245E-05
    3.63541975E-05  4.81964319E-05  4.25103172E-05  4.24060330E-05  5.08296321E-05  5.80321792E-05  4.19785801E-05  1.17433131E-04  6.84163221E-05  4.72132685E-05  3.28746726E-05  2.76884920E-05  2.95667020E-05  5.48762488E-05  5.09940196E-05  4.32963649E-05  2.58568525E-05  1.90363316E-05  2.14300559E-05  3.58995278E-05
    4.40886329E-05  3.61108280E-05  5.08320207E-05  4.96838929E-05  5.30601941E-05  6.00924925E-05  5.52061481E-05  3.58259251E-05  8.25383366E-05  8.50496023E-05  7.58144986E-05  5.27086781E-05  5.38479434E-05  3.36199171E-05  3.57688027E-05  4.55429415E-05  3.45448340E-05  3.68899815E-05  3.47380428E-05  1.97048475E-05
    3.01770968E-05  3.48283584E-05  4.76572444E-05  5.28193556E-05  8.86423880E-05  8.46363323E-05  9.50873089E-05  8.20928133E-05  1.35398519E-04  1.05122278E-04  9.36745001E-05  7.71479125E-05  9.51428056E-05  7.48280307E-05  7.77541608E-05  8.91037877E-05  9.22504223E-05  6.28830094E-05  6.79584660E-05  6.65589953E-05
    6.74891403E-05  8.78206054E-05  5.82715848E-05  7.06000993E-05  8.78337726E-05  6.28832576E-05  8.61470157E-05  6.64304816E-05  7.33389874E-05  5.22526589E-05  5.46964984E-05  6.08548320E-05  6.54058960E-05  6.14873389E-05  2.70958750E-05  2.43206727E-05  2.68892961E-05  2.48633755E-05  2.66969511E-05  4.73576499E-05
    4.94039917E-05  6.20051174E-05  5.14368651E-05  4.12415736E-05  2.80083129E-05  3.99379676E-05  4.20745772E-05  9.30879252E-05  8.31501849E-05  9.73070944E-05  6.17798508E-05  4.08231235E-05  6.32993853E-05  7.93111772E-05  6.57076803E-05  1.10102286E-04  9.75352432E-05  8.75620900E-05  6.93076993E-05  8.81116113E-05
    7.43620573E-05  7.31646076E-05  1.00910516E-04  8.39610914E-05  6.27959539E-05  6.52125203E-05  6.09396913E-05  8.63500503E-05  8.91499335E-05  1.02006881E-04  7.38329025E-05  6.49593735E-05  5.49362916E-05  6.10915692E-05  4.95707785E-05  5.22233343E-05  5.43455287E-05  5.24981891E-05  5.63983675E-05  5.17459288E-05
    5.18610903E-05  6.22784983E-05  6.09437627E-05  5.22828048E-05  8.26072253E-05  3.73883258E-05  5.05321140E-05  4.50233160E-05  3.23227702E-05  5.10703383E-05  4.68019774E-05  4.94373123E-05  4.27268828E-05  2.82715693E-05  1.50076424E-05  9.81346263E-06  2.24247860E-05  4.67966382E-05  4.18728887E-05  3.33610420E-05
    5.30516645E-05  4.77553321E-05  6.82585260E-05  5.27161962E-05  5.47338549E-05  7.06501900E-05  7.64829870E-05  6.85840505E-05  4.79982210E-05  3.50866609E-05  4.66267650E-05  4.46888591E-05  4.59312910E-05  5.14788245E-05  4.09902779E-05  2.61480723E-05  3.65333315E-05  3.57809227E-05  4.26526829E-05  4.75681579E-05
    5.91275781E-05  8.16497326E-05  5.02759651E-05  5.50312071E-05  6.95063675E-05  5.80227844E-05  6.08226634E-05  4.40839510E-05  6.24895621E-05  6.37435110E-05  6.82794487E-05  5.00920404E-05  7.26307165E-05  5.66909266E-05  5.30186987E-05  5.21142711E-05  6.09459487E-05  4.68489237E-05  6.64172899E-05  7.06021504E-05
    6.93260754E-05  6.89994344E-05  8.18546073E-05  6.84550363E-05  6.01543581E-05  6.45720034E-05  5.05543464E-05  5.31807561E-05  5.91762009E-05  3.44861012E-05  6.18499258E-05  3.44948935E-05  2.10004263E-05  2.83766997E-05  2.87593558E-05  2.56486225E-05  3.61395258E-05  3.89097680E-05  3.33126739E-05  4.07237364E-05
    3.20624019E-05  3.36283445E-05  3.60609662E-05  3.50775283E-05  8.19204417E-05  7.73390033E-05  5.81025826E-05  5.06101010E-05  3.90122142E-05  5.12668315E-05  9.47019332E-05  1.32563693E-04  1.02083839E-04  9.29170401E-05  1.04602534E-04  1.26792760E-04  1.12555718E-04  9.99569237E-05  7.32253137E-05  1.03104653E-04
    9.54733709E-05  1.13614142E-04  9.25341325E-05  1.07910996E-04  1.15555085E-04  1.27898751E-04  1.11632466E-04  8.56578669E-05  7.35041589E-05  9.18582717E-05  7.57921265E-05  9.03117950E-05  6.53716619E-05  6.98497088E-05  6.74075847E-05  5.73682687E-05  6.12909402E-05  4.70912333E-05  7.93314044E-05  8.29250919E-05
    7.69058676E-05  8.64503618E-05  4.66344978E-05  6.05967956E-05  4.95998439E-05  6.02675175E-05  5.92160863E-05  5.90667951E-05  4.66510012E-05  3.97835020E-05  1.85667915E-05  2.42988506E-05  2.18101745E-05  2.46929445E-05  4.57662335E-05  4.49762422E-05  3.20325782E-05  3.37188754E-05  4.09571720E-05  5.51099773E-05
    5.99366787E-05  8.72847255E-05  5.43176153E-05  4.96112117E-05  4.72256007E-05  8.37681067E-05  5.84035749E-05  6.69892049E-05  6.57278354E-05  4.23891065E-05  4.71331548E-05  5.85801748E-05  4.19353851E-05  4.57295281E-05  4.08123358E-05  6.16470834E-05  6.21107170E-05  5.13463798E-05  5.12984539E-05  5.90706015E-05
    5.23258200E-05  7.19128216E-05  6.42691809E-05  7.89747553E-05  8.05144782E-05  8.98575694E-05  7.64576557E-05  7.35136054E-05  9.73767911E-05  7.61310712E-05  9.06366217E-05  7.69698557E-05  8.95504216E-05  8.76891927E-05  9.96229426E-05  8.99192456E-05  9.51000576E-05  6.15435327E-05  5.64362019E-05  4.79419781E-05
    5.52520206E-05  4.86641361E-05  5.24283010E-05  4.43401340E-05  4.02256433E-05  4.74082548E-05  6.13752208E-05  2.60910959E-05  2.94863570E-05  3.05487306E-05  4.08437710E-05  5.48105327E-05  5.72761491E-05  4.26988149E-05  3.27693441E-05  2.75886287E-05  3.44382885E-05  2.92899837E-05  4.59178344E-05  4.91072986E-05
    3.77305396E-05  3.64874955E-05  5.63517314E-05  5.37048148E-05  5.93627277E-05  5.36538289E-05  4.97189467E-05  6.54490673E-05  6.52779790E-05  6.52882803E-05  6.11174492E-05  6.89281157E-05  7.69561123E-05  8.30170186E-05  8.52428558E-05  8.93959725E-05  1.01601255E-04  8.98454245E-05  1.06778676E-04  7.41843196E-05
    8.90432263E-05  6.81268397E-05  8.26334348E-05  8.59063938E-05  1.09909684E-04  9.92522033E-05  9.31351725E-05  9.58404068E-05  9.99361476E-05  1.00065154E-04  1.19703672E-04  1.05483228E-04  1.16702352E-04  1.08092782E-04  7.60438113E-05  5.32504753E-05  6.24213933E-05  7.62028676E-05  5.65878241E-05  4.65958985E-05
    5.49877459E-05  7.58634133E-05  5.23849663E-05  6.08361677E-05  6.82094797E-05  5.15442290E-05  3.49931000E-05  1.90024595E-05  3.44508329E-05  3.50394972E-05  4.93620805E-05  4.97464136E-05  4.10383120E-05  5.63628324E-05  6.31130909E-05  5.40288474E-05  1.03752619E-04  1.03209673E-04  8.16034152E-05  7.26208013E-05
    5.81636184E-05  2.66655762E-05  5.42692924E-05  6.12461534E-05  7.54529311E-05  7.24546126E-05  6.74917525E-05  5.45007346E-05  1.04686955E-04  7.24073724E-05  7.95775615E-05  5.45129312E-05  6.86851105E-05  7.88814335E-05  6.24703913E-05  4.72628630E-05  6.63863359E-05  4.44051840E-05  4.61256239E-05  9.53310490E-05
    7.86974770E-05  7.28082376E-05  7.21520794E-05  7.42913129E-05  6.69134192E-05  7.12018373E-05  6.43345503E-05  6.25822202E-05  6.07282265E-05  5.03491290E-05  5.55846859E-05  6.74929230E-05  6.79891681E-05  5.66512040E-05  6.39299418E-05  8.01936836E-05  6.23611773E-05  7.78651297E-05  7.69604146E-05  5.57359538E-05