<<<<<<< HEAD
# File generated by Flopy version 3.3.4 on 01/28/2022 at 18:16:17.
||||||| 1a00768
# File generated by Flopy version 3.3.5 on 01/28/2022 at 12:41:43.
=======
# File generated by Flopy version 3.3.5 on 01/28/2022 at 16:19:02.
>>>>>>> ff83e7fc377772244b48b63e26fb4aea0344e57c
BEGIN options
  SAVE_FLOWS
  SAVE_SPECIFIC_DISCHARGE
END options

BEGIN griddata
  icelltype
    CONSTANT  0
  k
    CONSTANT  6.30957344E-05
END griddata

