<<<<<<< HEAD
# File generated by Flopy version 3.3.4 on 01/28/2022 at 18:16:15.
||||||| 1a00768
# File generated by Flopy version 3.3.5 on 01/28/2022 at 12:41:40.
=======
# File generated by Flopy version 3.3.5 on 01/28/2022 at 16:18:59.
>>>>>>> ff83e7fc377772244b48b63e26fb4aea0344e57c
BEGIN options
  TIME_UNITS  seconds
END options

BEGIN dimensions
  NPER  1
END dimensions

BEGIN perioddata
       1.00000000  1       1.00000000
END perioddata

