# File generated by Flopy version 3.3.4 on 01/28/2022 at 18:16:17.
BEGIN options
  SAVE_FLOWS
  SAVE_SPECIFIC_DISCHARGE
END options

BEGIN griddata
  icelltype
    CONSTANT  0
  k
    CONSTANT  6.30957344E-05
END griddata

