# File generated by Flopy version 3.3.5 on 01/26/2022 at 15:58:03.
BEGIN options
  READASARRAYS
END options

BEGIN period  1
  recharge
    CONSTANT  9.51293760E-09
END period  1

